
---------- Begin Simulation Statistics ----------
final_tick                                 1205923500                       # Number of ticks from beginning of simulation (restored from checkpoints and never reset)
host_inst_rate                                 220102                       # Simulator instruction rate (inst/s)
host_mem_usage                                 693792                       # Number of bytes of host memory used
host_op_rate                                   410805                       # Simulator op (including micro ops) rate (op/s)
host_seconds                                     2.14                       # Real time elapsed on the host
host_tick_rate                              564322044                       # Simulator tick rate (ticks/s)
sim_freq                                 1000000000000                       # Frequency of simulated ticks
sim_insts                                      470280                       # Number of instructions simulated
sim_ops                                        877835                       # Number of ops (including micro ops) simulated
sim_seconds                                  0.001206                       # Number of seconds simulated
sim_ticks                                  1205923500                       # Number of ticks simulated
system.cpu.Branches                             72604                       # Number of branches fetched
system.cpu.committedInsts                      470280                       # Number of instructions committed
system.cpu.committedOps                        877835                       # Number of ops (including micro ops) committed
system.cpu.idle_fraction                     0.000000                       # Percentage of idle cycles
system.cpu.not_idle_fraction                 1.000000                       # Percentage of non-idle cycles
system.cpu.numCycles                          2411847                       # number of cpu cycles simulated
system.cpu.numWorkItemsCompleted                    0                       # number of work items this cpu completed
system.cpu.numWorkItemsStarted                      0                       # number of work items this cpu started
system.cpu.num_busy_cycles               2411846.998000                       # Number of busy cycles
system.cpu.num_cc_register_reads               329877                       # number of times the CC registers were read
system.cpu.num_cc_register_writes              220612                       # number of times the CC registers were written
system.cpu.num_conditional_control_insts        50060                       # number of instructions that are conditional controls
system.cpu.num_fp_alu_accesses                 253735                       # Number of float alu accesses
system.cpu.num_fp_insts                        253735                       # number of float instructions
system.cpu.num_fp_register_reads               239399                       # number of times the floating registers were read
system.cpu.num_fp_register_writes              213269                       # number of times the floating registers were written
system.cpu.num_func_calls                       13694                       # number of times a function call or return occured
system.cpu.num_idle_cycles                   0.002000                       # Number of idle cycles
system.cpu.num_int_alu_accesses                720319                       # Number of integer alu accesses
system.cpu.num_int_insts                       720319                       # number of integer instructions
system.cpu.num_int_register_reads             1479845                       # number of times the integer registers were read
system.cpu.num_int_register_writes             517806                       # number of times the integer registers were written
system.cpu.num_load_insts                      144784                       # Number of load instructions
system.cpu.num_mem_refs                        211985                       # number of memory refs
system.cpu.num_store_insts                      67201                       # Number of store instructions
system.cpu.num_vec_alu_accesses                     0                       # Number of vector alu accesses
system.cpu.num_vec_insts                            0                       # number of vector instructions
system.cpu.num_vec_register_reads                   0                       # number of times the vector registers were read
system.cpu.num_vec_register_writes                  0                       # number of times the vector registers were written
system.cpu.op_class::No_OpClass                 11339      1.29%      1.29% # Class of executed instruction
system.cpu.op_class::IntAlu                    504634     57.48%     58.77% # Class of executed instruction
system.cpu.op_class::IntMult                      123      0.01%     58.78% # Class of executed instruction
system.cpu.op_class::IntDiv                      2125      0.24%     59.02% # Class of executed instruction
system.cpu.op_class::FloatAdd                   69680      7.94%     66.96% # Class of executed instruction
system.cpu.op_class::FloatCmp                       0      0.00%     66.96% # Class of executed instruction
system.cpu.op_class::FloatCvt                      32      0.00%     66.96% # Class of executed instruction
system.cpu.op_class::FloatMult                      0      0.00%     66.96% # Class of executed instruction
system.cpu.op_class::FloatMultAcc                   0      0.00%     66.96% # Class of executed instruction
system.cpu.op_class::FloatDiv                       0      0.00%     66.96% # Class of executed instruction
system.cpu.op_class::FloatMisc                      0      0.00%     66.96% # Class of executed instruction
system.cpu.op_class::FloatSqrt                      0      0.00%     66.96% # Class of executed instruction
system.cpu.op_class::SimdAdd                      554      0.06%     67.03% # Class of executed instruction
system.cpu.op_class::SimdAddAcc                     0      0.00%     67.03% # Class of executed instruction
system.cpu.op_class::SimdAlu                     9039      1.03%     68.06% # Class of executed instruction
system.cpu.op_class::SimdCmp                        0      0.00%     68.06% # Class of executed instruction
system.cpu.op_class::SimdCvt                     1366      0.16%     68.21% # Class of executed instruction
system.cpu.op_class::SimdMisc                   11506      1.31%     69.52% # Class of executed instruction
system.cpu.op_class::SimdMult                       0      0.00%     69.52% # Class of executed instruction
system.cpu.op_class::SimdMultAcc                    0      0.00%     69.52% # Class of executed instruction
system.cpu.op_class::SimdShift                    174      0.02%     69.54% # Class of executed instruction
system.cpu.op_class::SimdShiftAcc                   0      0.00%     69.54% # Class of executed instruction
system.cpu.op_class::SimdDiv                        0      0.00%     69.54% # Class of executed instruction
system.cpu.op_class::SimdSqrt                       0      0.00%     69.54% # Class of executed instruction
system.cpu.op_class::SimdFloatAdd               15212      1.73%     71.28% # Class of executed instruction
system.cpu.op_class::SimdFloatAlu                   0      0.00%     71.28% # Class of executed instruction
system.cpu.op_class::SimdFloatCmp                   0      0.00%     71.28% # Class of executed instruction
system.cpu.op_class::SimdFloatCvt               15412      1.76%     73.03% # Class of executed instruction
system.cpu.op_class::SimdFloatDiv                1600      0.18%     73.21% # Class of executed instruction
system.cpu.op_class::SimdFloatMisc                  0      0.00%     73.21% # Class of executed instruction
system.cpu.op_class::SimdFloatMult              22800      2.60%     75.81% # Class of executed instruction
system.cpu.op_class::SimdFloatMultAcc               0      0.00%     75.81% # Class of executed instruction
system.cpu.op_class::SimdFloatSqrt                400      0.05%     75.86% # Class of executed instruction
system.cpu.op_class::SimdReduceAdd                  0      0.00%     75.86% # Class of executed instruction
system.cpu.op_class::SimdReduceAlu                  0      0.00%     75.86% # Class of executed instruction
system.cpu.op_class::SimdReduceCmp                  0      0.00%     75.86% # Class of executed instruction
system.cpu.op_class::SimdFloatReduceAdd             0      0.00%     75.86% # Class of executed instruction
system.cpu.op_class::SimdFloatReduceCmp             0      0.00%     75.86% # Class of executed instruction
system.cpu.op_class::SimdAes                        0      0.00%     75.86% # Class of executed instruction
system.cpu.op_class::SimdAesMix                     0      0.00%     75.86% # Class of executed instruction
system.cpu.op_class::SimdSha1Hash                   0      0.00%     75.86% # Class of executed instruction
system.cpu.op_class::SimdSha1Hash2                  0      0.00%     75.86% # Class of executed instruction
system.cpu.op_class::SimdSha256Hash                 0      0.00%     75.86% # Class of executed instruction
system.cpu.op_class::SimdSha256Hash2                0      0.00%     75.86% # Class of executed instruction
system.cpu.op_class::SimdShaSigma2                  0      0.00%     75.86% # Class of executed instruction
system.cpu.op_class::SimdShaSigma3                  0      0.00%     75.86% # Class of executed instruction
system.cpu.op_class::SimdPredAlu                    0      0.00%     75.86% # Class of executed instruction
system.cpu.op_class::MemRead                    82126      9.35%     85.21% # Class of executed instruction
system.cpu.op_class::MemWrite                   33564      3.82%     89.03% # Class of executed instruction
system.cpu.op_class::FloatMemRead               62658      7.14%     96.17% # Class of executed instruction
system.cpu.op_class::FloatMemWrite              33637      3.83%    100.00% # Class of executed instruction
system.cpu.op_class::IprAccess                      0      0.00%    100.00% # Class of executed instruction
system.cpu.op_class::InstPrefetch                   0      0.00%    100.00% # Class of executed instruction
system.cpu.op_class::total                     877981                       # Class of executed instruction
system.cpu.workload.numSyscalls                    57                       # Number of system calls
system.membus.snoop_filter.hit_multi_requests            0                       # Number of requests hitting in the snoop filter with multiple (>1) holders of the requested data.
system.membus.snoop_filter.hit_multi_snoops            0                       # Number of snoops hitting in the snoop filter with multiple (>1) holders of the requested data.
system.membus.snoop_filter.hit_single_requests          795                       # Number of requests hitting in the snoop filter with a single holder of the requested data.
system.membus.snoop_filter.hit_single_snoops            0                       # Number of snoops hitting in the snoop filter with a single holder of the requested data.
system.membus.snoop_filter.tot_requests          5250                       # Total number of requests made to the snoop filter.
system.membus.snoop_filter.tot_snoops               0                       # Total number of snoops made to the snoop filter.
system.tol2bus.snoop_filter.hit_multi_requests            0                       # Number of requests hitting in the snoop filter with multiple (>1) holders of the requested data.
system.tol2bus.snoop_filter.hit_multi_snoops            0                       # Number of snoops hitting in the snoop filter with multiple (>1) holders of the requested data.
system.tol2bus.snoop_filter.hit_single_requests         1253                       # Number of requests hitting in the snoop filter with a single holder of the requested data.
system.tol2bus.snoop_filter.hit_single_snoops         2765                       # Number of snoops hitting in the snoop filter with a single holder of the requested data.
system.tol2bus.snoop_filter.tot_requests         5809                       # Total number of requests made to the snoop filter.
system.tol2bus.snoop_filter.tot_snoops           2765                       # Total number of snoops made to the snoop filter.
system.clk_domain.clock                          1000                       # Clock period in ticks
system.cpu.dcache.demand_hits::.cpu.data       214151                       # number of demand (read+write) hits
system.cpu.dcache.demand_hits::total           214151                       # number of demand (read+write) hits
system.cpu.dcache.overall_hits::.cpu.data       214151                       # number of overall hits
system.cpu.dcache.overall_hits::total          214151                       # number of overall hits
system.cpu.dcache.demand_misses::.cpu.data         2961                       # number of demand (read+write) misses
system.cpu.dcache.demand_misses::total           2961                       # number of demand (read+write) misses
system.cpu.dcache.overall_misses::.cpu.data         2961                       # number of overall misses
system.cpu.dcache.overall_misses::total          2961                       # number of overall misses
system.cpu.dcache.demand_miss_latency::.cpu.data    229469000                       # number of demand (read+write) miss cycles
system.cpu.dcache.demand_miss_latency::total    229469000                       # number of demand (read+write) miss cycles
system.cpu.dcache.overall_miss_latency::.cpu.data    229469000                       # number of overall miss cycles
system.cpu.dcache.overall_miss_latency::total    229469000                       # number of overall miss cycles
system.cpu.dcache.demand_accesses::.cpu.data       217112                       # number of demand (read+write) accesses
system.cpu.dcache.demand_accesses::total       217112                       # number of demand (read+write) accesses
system.cpu.dcache.overall_accesses::.cpu.data       217112                       # number of overall (read+write) accesses
system.cpu.dcache.overall_accesses::total       217112                       # number of overall (read+write) accesses
system.cpu.dcache.demand_miss_rate::.cpu.data     0.013638                       # miss rate for demand accesses
system.cpu.dcache.demand_miss_rate::total     0.013638                       # miss rate for demand accesses
system.cpu.dcache.overall_miss_rate::.cpu.data     0.013638                       # miss rate for overall accesses
system.cpu.dcache.overall_miss_rate::total     0.013638                       # miss rate for overall accesses
system.cpu.dcache.demand_avg_miss_latency::.cpu.data 77497.129348                       # average overall miss latency
system.cpu.dcache.demand_avg_miss_latency::total 77497.129348                       # average overall miss latency
system.cpu.dcache.overall_avg_miss_latency::.cpu.data 77497.129348                       # average overall miss latency
system.cpu.dcache.overall_avg_miss_latency::total 77497.129348                       # average overall miss latency
system.cpu.dcache.blocked_cycles::no_mshrs            0                       # number of cycles access was blocked
system.cpu.dcache.blocked_cycles::no_targets            0                       # number of cycles access was blocked
system.cpu.dcache.blocked::no_mshrs                 0                       # number of cycles access was blocked
system.cpu.dcache.blocked::no_targets               0                       # number of cycles access was blocked
system.cpu.dcache.avg_blocked_cycles::no_mshrs          nan                       # average number of cycles each access was blocked
system.cpu.dcache.avg_blocked_cycles::no_targets          nan                       # average number of cycles each access was blocked
system.cpu.dcache.writebacks::.writebacks          358                       # number of writebacks
system.cpu.dcache.writebacks::total               358                       # number of writebacks
system.cpu.dcache.demand_mshr_misses::.cpu.data         2961                       # number of demand (read+write) MSHR misses
system.cpu.dcache.demand_mshr_misses::total         2961                       # number of demand (read+write) MSHR misses
system.cpu.dcache.overall_mshr_misses::.cpu.data         2961                       # number of overall MSHR misses
system.cpu.dcache.overall_mshr_misses::total         2961                       # number of overall MSHR misses
system.cpu.dcache.demand_mshr_miss_latency::.cpu.data    226508000                       # number of demand (read+write) MSHR miss cycles
system.cpu.dcache.demand_mshr_miss_latency::total    226508000                       # number of demand (read+write) MSHR miss cycles
system.cpu.dcache.overall_mshr_miss_latency::.cpu.data    226508000                       # number of overall MSHR miss cycles
system.cpu.dcache.overall_mshr_miss_latency::total    226508000                       # number of overall MSHR miss cycles
system.cpu.dcache.demand_mshr_miss_rate::.cpu.data     0.013638                       # mshr miss rate for demand accesses
system.cpu.dcache.demand_mshr_miss_rate::total     0.013638                       # mshr miss rate for demand accesses
system.cpu.dcache.overall_mshr_miss_rate::.cpu.data     0.013638                       # mshr miss rate for overall accesses
system.cpu.dcache.overall_mshr_miss_rate::total     0.013638                       # mshr miss rate for overall accesses
system.cpu.dcache.demand_avg_mshr_miss_latency::.cpu.data 76497.129348                       # average overall mshr miss latency
system.cpu.dcache.demand_avg_mshr_miss_latency::total 76497.129348                       # average overall mshr miss latency
system.cpu.dcache.overall_avg_mshr_miss_latency::.cpu.data 76497.129348                       # average overall mshr miss latency
system.cpu.dcache.overall_avg_mshr_miss_latency::total 76497.129348                       # average overall mshr miss latency
system.cpu.dcache.replacements                    991                       # number of replacements
system.cpu.dcache.ReadReq_hits::.cpu.data       147589                       # number of ReadReq hits
system.cpu.dcache.ReadReq_hits::total          147589                       # number of ReadReq hits
system.cpu.dcache.ReadReq_misses::.cpu.data         2339                       # number of ReadReq misses
system.cpu.dcache.ReadReq_misses::total          2339                       # number of ReadReq misses
system.cpu.dcache.ReadReq_miss_latency::.cpu.data    181437500                       # number of ReadReq miss cycles
system.cpu.dcache.ReadReq_miss_latency::total    181437500                       # number of ReadReq miss cycles
system.cpu.dcache.ReadReq_accesses::.cpu.data       149928                       # number of ReadReq accesses(hits+misses)
system.cpu.dcache.ReadReq_accesses::total       149928                       # number of ReadReq accesses(hits+misses)
system.cpu.dcache.ReadReq_miss_rate::.cpu.data     0.015601                       # miss rate for ReadReq accesses
system.cpu.dcache.ReadReq_miss_rate::total     0.015601                       # miss rate for ReadReq accesses
system.cpu.dcache.ReadReq_avg_miss_latency::.cpu.data 77570.542967                       # average ReadReq miss latency
system.cpu.dcache.ReadReq_avg_miss_latency::total 77570.542967                       # average ReadReq miss latency
system.cpu.dcache.ReadReq_mshr_misses::.cpu.data         2339                       # number of ReadReq MSHR misses
system.cpu.dcache.ReadReq_mshr_misses::total         2339                       # number of ReadReq MSHR misses
system.cpu.dcache.ReadReq_mshr_miss_latency::.cpu.data    179098500                       # number of ReadReq MSHR miss cycles
system.cpu.dcache.ReadReq_mshr_miss_latency::total    179098500                       # number of ReadReq MSHR miss cycles
system.cpu.dcache.ReadReq_mshr_miss_rate::.cpu.data     0.015601                       # mshr miss rate for ReadReq accesses
system.cpu.dcache.ReadReq_mshr_miss_rate::total     0.015601                       # mshr miss rate for ReadReq accesses
system.cpu.dcache.ReadReq_avg_mshr_miss_latency::.cpu.data 76570.542967                       # average ReadReq mshr miss latency
system.cpu.dcache.ReadReq_avg_mshr_miss_latency::total 76570.542967                       # average ReadReq mshr miss latency
system.cpu.dcache.WriteReq_hits::.cpu.data        66562                       # number of WriteReq hits
system.cpu.dcache.WriteReq_hits::total          66562                       # number of WriteReq hits
system.cpu.dcache.WriteReq_misses::.cpu.data          622                       # number of WriteReq misses
system.cpu.dcache.WriteReq_misses::total          622                       # number of WriteReq misses
system.cpu.dcache.WriteReq_miss_latency::.cpu.data     48031500                       # number of WriteReq miss cycles
system.cpu.dcache.WriteReq_miss_latency::total     48031500                       # number of WriteReq miss cycles
system.cpu.dcache.WriteReq_accesses::.cpu.data        67184                       # number of WriteReq accesses(hits+misses)
system.cpu.dcache.WriteReq_accesses::total        67184                       # number of WriteReq accesses(hits+misses)
system.cpu.dcache.WriteReq_miss_rate::.cpu.data     0.009258                       # miss rate for WriteReq accesses
system.cpu.dcache.WriteReq_miss_rate::total     0.009258                       # miss rate for WriteReq accesses
system.cpu.dcache.WriteReq_avg_miss_latency::.cpu.data 77221.061093                       # average WriteReq miss latency
system.cpu.dcache.WriteReq_avg_miss_latency::total 77221.061093                       # average WriteReq miss latency
system.cpu.dcache.WriteReq_mshr_misses::.cpu.data          622                       # number of WriteReq MSHR misses
system.cpu.dcache.WriteReq_mshr_misses::total          622                       # number of WriteReq MSHR misses
system.cpu.dcache.WriteReq_mshr_miss_latency::.cpu.data     47409500                       # number of WriteReq MSHR miss cycles
system.cpu.dcache.WriteReq_mshr_miss_latency::total     47409500                       # number of WriteReq MSHR miss cycles
system.cpu.dcache.WriteReq_mshr_miss_rate::.cpu.data     0.009258                       # mshr miss rate for WriteReq accesses
system.cpu.dcache.WriteReq_mshr_miss_rate::total     0.009258                       # mshr miss rate for WriteReq accesses
system.cpu.dcache.WriteReq_avg_mshr_miss_latency::.cpu.data 76221.061093                       # average WriteReq mshr miss latency
system.cpu.dcache.WriteReq_avg_mshr_miss_latency::total 76221.061093                       # average WriteReq mshr miss latency
system.cpu.dcache.power_state.pwrStateResidencyTicks::UNDEFINED   1205923500                       # Cumulative time (in ticks) in various power states
system.cpu.dcache.tags.tagsinuse          1596.604862                       # Cycle average of tags in use
system.cpu.dcache.tags.total_refs              217112                       # Total number of references to valid blocks.
system.cpu.dcache.tags.sampled_refs              2961                       # Sample count of references to valid blocks.
system.cpu.dcache.tags.avg_refs             73.323877                       # Average number of references to valid blocks.
system.cpu.dcache.tags.warmup_cycle            174500                       # Cycle when the warmup percentage was hit.
system.cpu.dcache.tags.occ_blocks::.cpu.data  1596.604862                       # Average occupied blocks per requestor
system.cpu.dcache.tags.occ_percent::.cpu.data     0.779592                       # Average percentage of cache occupancy
system.cpu.dcache.tags.occ_percent::total     0.779592                       # Average percentage of cache occupancy
system.cpu.dcache.tags.occ_task_id_blocks::1024         1970                       # Occupied blocks per task id
system.cpu.dcache.tags.age_task_id_blocks_1024::0           21                       # Occupied blocks per task id
system.cpu.dcache.tags.age_task_id_blocks_1024::1           11                       # Occupied blocks per task id
system.cpu.dcache.tags.age_task_id_blocks_1024::2         1425                       # Occupied blocks per task id
system.cpu.dcache.tags.age_task_id_blocks_1024::3          513                       # Occupied blocks per task id
system.cpu.dcache.tags.occ_task_id_percent::1024     0.961914                       # Percentage of cache occupancy per task id
system.cpu.dcache.tags.tag_accesses            437185                       # Number of tag accesses
system.cpu.dcache.tags.data_accesses           437185                       # Number of data accesses
system.cpu.dcache.tags.power_state.pwrStateResidencyTicks::UNDEFINED   1205923500                       # Cumulative time (in ticks) in various power states
system.cpu.dtb.rdAccesses                      150000                       # TLB accesses on read requests
system.cpu.dtb.wrAccesses                       67201                       # TLB accesses on write requests
system.cpu.dtb.rdMisses                           233                       # TLB misses on read requests
system.cpu.dtb.wrMisses                            43                       # TLB misses on write requests
system.cpu.dtb.walker.power_state.pwrStateResidencyTicks::UNDEFINED   1205923500                       # Cumulative time (in ticks) in various power states
system.cpu.dtb_walker_cache.blocked_cycles::no_mshrs            0                       # number of cycles access was blocked
system.cpu.dtb_walker_cache.blocked_cycles::no_targets            0                       # number of cycles access was blocked
system.cpu.dtb_walker_cache.blocked::no_mshrs            0                       # number of cycles access was blocked
system.cpu.dtb_walker_cache.blocked::no_targets            0                       # number of cycles access was blocked
system.cpu.dtb_walker_cache.avg_blocked_cycles::no_mshrs          nan                       # average number of cycles each access was blocked
system.cpu.dtb_walker_cache.avg_blocked_cycles::no_targets          nan                       # average number of cycles each access was blocked
system.cpu.dtb_walker_cache.replacements            0                       # number of replacements
system.cpu.dtb_walker_cache.power_state.pwrStateResidencyTicks::UNDEFINED   1205923500                       # Cumulative time (in ticks) in various power states
system.cpu.dtb_walker_cache.tags.tagsinuse            0                       # Cycle average of tags in use
system.cpu.dtb_walker_cache.tags.total_refs            0                       # Total number of references to valid blocks.
system.cpu.dtb_walker_cache.tags.sampled_refs            0                       # Sample count of references to valid blocks.
system.cpu.dtb_walker_cache.tags.avg_refs          nan                       # Average number of references to valid blocks.
system.cpu.dtb_walker_cache.tags.warmup_cycle            0                       # Cycle when the warmup percentage was hit.
system.cpu.dtb_walker_cache.tags.tag_accesses            0                       # Number of tag accesses
system.cpu.dtb_walker_cache.tags.data_accesses            0                       # Number of data accesses
system.cpu.dtb_walker_cache.tags.power_state.pwrStateResidencyTicks::UNDEFINED   1205923500                       # Cumulative time (in ticks) in various power states
system.cpu.icache.demand_hits::.cpu.inst       641401                       # number of demand (read+write) hits
system.cpu.icache.demand_hits::total           641401                       # number of demand (read+write) hits
system.cpu.icache.overall_hits::.cpu.inst       641401                       # number of overall hits
system.cpu.icache.overall_hits::total          641401                       # number of overall hits
system.cpu.icache.demand_misses::.cpu.inst         1595                       # number of demand (read+write) misses
system.cpu.icache.demand_misses::total           1595                       # number of demand (read+write) misses
system.cpu.icache.overall_misses::.cpu.inst         1595                       # number of overall misses
system.cpu.icache.overall_misses::total          1595                       # number of overall misses
system.cpu.icache.demand_miss_latency::.cpu.inst    123514500                       # number of demand (read+write) miss cycles
system.cpu.icache.demand_miss_latency::total    123514500                       # number of demand (read+write) miss cycles
system.cpu.icache.overall_miss_latency::.cpu.inst    123514500                       # number of overall miss cycles
system.cpu.icache.overall_miss_latency::total    123514500                       # number of overall miss cycles
system.cpu.icache.demand_accesses::.cpu.inst       642996                       # number of demand (read+write) accesses
system.cpu.icache.demand_accesses::total       642996                       # number of demand (read+write) accesses
system.cpu.icache.overall_accesses::.cpu.inst       642996                       # number of overall (read+write) accesses
system.cpu.icache.overall_accesses::total       642996                       # number of overall (read+write) accesses
system.cpu.icache.demand_miss_rate::.cpu.inst     0.002481                       # miss rate for demand accesses
system.cpu.icache.demand_miss_rate::total     0.002481                       # miss rate for demand accesses
system.cpu.icache.overall_miss_rate::.cpu.inst     0.002481                       # miss rate for overall accesses
system.cpu.icache.overall_miss_rate::total     0.002481                       # miss rate for overall accesses
system.cpu.icache.demand_avg_miss_latency::.cpu.inst 77438.557994                       # average overall miss latency
system.cpu.icache.demand_avg_miss_latency::total 77438.557994                       # average overall miss latency
system.cpu.icache.overall_avg_miss_latency::.cpu.inst 77438.557994                       # average overall miss latency
system.cpu.icache.overall_avg_miss_latency::total 77438.557994                       # average overall miss latency
system.cpu.icache.blocked_cycles::no_mshrs            0                       # number of cycles access was blocked
system.cpu.icache.blocked_cycles::no_targets            0                       # number of cycles access was blocked
system.cpu.icache.blocked::no_mshrs                 0                       # number of cycles access was blocked
system.cpu.icache.blocked::no_targets               0                       # number of cycles access was blocked
system.cpu.icache.avg_blocked_cycles::no_mshrs          nan                       # average number of cycles each access was blocked
system.cpu.icache.avg_blocked_cycles::no_targets          nan                       # average number of cycles each access was blocked
system.cpu.icache.writebacks::.writebacks          262                       # number of writebacks
system.cpu.icache.writebacks::total               262                       # number of writebacks
system.cpu.icache.demand_mshr_misses::.cpu.inst         1595                       # number of demand (read+write) MSHR misses
system.cpu.icache.demand_mshr_misses::total         1595                       # number of demand (read+write) MSHR misses
system.cpu.icache.overall_mshr_misses::.cpu.inst         1595                       # number of overall MSHR misses
system.cpu.icache.overall_mshr_misses::total         1595                       # number of overall MSHR misses
system.cpu.icache.demand_mshr_miss_latency::.cpu.inst    121919500                       # number of demand (read+write) MSHR miss cycles
system.cpu.icache.demand_mshr_miss_latency::total    121919500                       # number of demand (read+write) MSHR miss cycles
system.cpu.icache.overall_mshr_miss_latency::.cpu.inst    121919500                       # number of overall MSHR miss cycles
system.cpu.icache.overall_mshr_miss_latency::total    121919500                       # number of overall MSHR miss cycles
system.cpu.icache.demand_mshr_miss_rate::.cpu.inst     0.002481                       # mshr miss rate for demand accesses
system.cpu.icache.demand_mshr_miss_rate::total     0.002481                       # mshr miss rate for demand accesses
system.cpu.icache.overall_mshr_miss_rate::.cpu.inst     0.002481                       # mshr miss rate for overall accesses
system.cpu.icache.overall_mshr_miss_rate::total     0.002481                       # mshr miss rate for overall accesses
system.cpu.icache.demand_avg_mshr_miss_latency::.cpu.inst 76438.557994                       # average overall mshr miss latency
system.cpu.icache.demand_avg_mshr_miss_latency::total 76438.557994                       # average overall mshr miss latency
system.cpu.icache.overall_avg_mshr_miss_latency::.cpu.inst 76438.557994                       # average overall mshr miss latency
system.cpu.icache.overall_avg_mshr_miss_latency::total 76438.557994                       # average overall mshr miss latency
system.cpu.icache.replacements                    262                       # number of replacements
system.cpu.icache.ReadReq_hits::.cpu.inst       641401                       # number of ReadReq hits
system.cpu.icache.ReadReq_hits::total          641401                       # number of ReadReq hits
system.cpu.icache.ReadReq_misses::.cpu.inst         1595                       # number of ReadReq misses
system.cpu.icache.ReadReq_misses::total          1595                       # number of ReadReq misses
system.cpu.icache.ReadReq_miss_latency::.cpu.inst    123514500                       # number of ReadReq miss cycles
system.cpu.icache.ReadReq_miss_latency::total    123514500                       # number of ReadReq miss cycles
system.cpu.icache.ReadReq_accesses::.cpu.inst       642996                       # number of ReadReq accesses(hits+misses)
system.cpu.icache.ReadReq_accesses::total       642996                       # number of ReadReq accesses(hits+misses)
system.cpu.icache.ReadReq_miss_rate::.cpu.inst     0.002481                       # miss rate for ReadReq accesses
system.cpu.icache.ReadReq_miss_rate::total     0.002481                       # miss rate for ReadReq accesses
system.cpu.icache.ReadReq_avg_miss_latency::.cpu.inst 77438.557994                       # average ReadReq miss latency
system.cpu.icache.ReadReq_avg_miss_latency::total 77438.557994                       # average ReadReq miss latency
system.cpu.icache.ReadReq_mshr_misses::.cpu.inst         1595                       # number of ReadReq MSHR misses
system.cpu.icache.ReadReq_mshr_misses::total         1595                       # number of ReadReq MSHR misses
system.cpu.icache.ReadReq_mshr_miss_latency::.cpu.inst    121919500                       # number of ReadReq MSHR miss cycles
system.cpu.icache.ReadReq_mshr_miss_latency::total    121919500                       # number of ReadReq MSHR miss cycles
system.cpu.icache.ReadReq_mshr_miss_rate::.cpu.inst     0.002481                       # mshr miss rate for ReadReq accesses
system.cpu.icache.ReadReq_mshr_miss_rate::total     0.002481                       # mshr miss rate for ReadReq accesses
system.cpu.icache.ReadReq_avg_mshr_miss_latency::.cpu.inst 76438.557994                       # average ReadReq mshr miss latency
system.cpu.icache.ReadReq_avg_mshr_miss_latency::total 76438.557994                       # average ReadReq mshr miss latency
system.cpu.icache.power_state.pwrStateResidencyTicks::UNDEFINED   1205923500                       # Cumulative time (in ticks) in various power states
system.cpu.icache.tags.tagsinuse           918.859348                       # Cycle average of tags in use
system.cpu.icache.tags.total_refs              642996                       # Total number of references to valid blocks.
system.cpu.icache.tags.sampled_refs              1595                       # Sample count of references to valid blocks.
system.cpu.icache.tags.avg_refs            403.132288                       # Average number of references to valid blocks.
system.cpu.icache.tags.warmup_cycle             87500                       # Cycle when the warmup percentage was hit.
system.cpu.icache.tags.occ_blocks::.cpu.inst   918.859348                       # Average occupied blocks per requestor
system.cpu.icache.tags.occ_percent::.cpu.inst     0.448662                       # Average percentage of cache occupancy
system.cpu.icache.tags.occ_percent::total     0.448662                       # Average percentage of cache occupancy
system.cpu.icache.tags.occ_task_id_blocks::1024         1333                       # Occupied blocks per task id
system.cpu.icache.tags.age_task_id_blocks_1024::0           71                       # Occupied blocks per task id
system.cpu.icache.tags.age_task_id_blocks_1024::1          125                       # Occupied blocks per task id
system.cpu.icache.tags.age_task_id_blocks_1024::2          719                       # Occupied blocks per task id
system.cpu.icache.tags.age_task_id_blocks_1024::3          418                       # Occupied blocks per task id
system.cpu.icache.tags.occ_task_id_percent::1024     0.650879                       # Percentage of cache occupancy per task id
system.cpu.icache.tags.tag_accesses           1287587                       # Number of tag accesses
system.cpu.icache.tags.data_accesses          1287587                       # Number of data accesses
system.cpu.icache.tags.power_state.pwrStateResidencyTicks::UNDEFINED   1205923500                       # Cumulative time (in ticks) in various power states
system.cpu.interrupts.clk_domain.clock           8000                       # Clock period in ticks
system.cpu.itb.rdAccesses                           0                       # TLB accesses on read requests
system.cpu.itb.wrAccesses                      643074                       # TLB accesses on write requests
system.cpu.itb.rdMisses                             0                       # TLB misses on read requests
system.cpu.itb.wrMisses                           262                       # TLB misses on write requests
system.cpu.itb.walker.power_state.pwrStateResidencyTicks::UNDEFINED   1205923500                       # Cumulative time (in ticks) in various power states
system.cpu.itb_walker_cache.blocked_cycles::no_mshrs            0                       # number of cycles access was blocked
system.cpu.itb_walker_cache.blocked_cycles::no_targets            0                       # number of cycles access was blocked
system.cpu.itb_walker_cache.blocked::no_mshrs            0                       # number of cycles access was blocked
system.cpu.itb_walker_cache.blocked::no_targets            0                       # number of cycles access was blocked
system.cpu.itb_walker_cache.avg_blocked_cycles::no_mshrs          nan                       # average number of cycles each access was blocked
system.cpu.itb_walker_cache.avg_blocked_cycles::no_targets          nan                       # average number of cycles each access was blocked
system.cpu.itb_walker_cache.replacements            0                       # number of replacements
system.cpu.itb_walker_cache.power_state.pwrStateResidencyTicks::UNDEFINED   1205923500                       # Cumulative time (in ticks) in various power states
system.cpu.itb_walker_cache.tags.tagsinuse            0                       # Cycle average of tags in use
system.cpu.itb_walker_cache.tags.total_refs            0                       # Total number of references to valid blocks.
system.cpu.itb_walker_cache.tags.sampled_refs            0                       # Sample count of references to valid blocks.
system.cpu.itb_walker_cache.tags.avg_refs          nan                       # Average number of references to valid blocks.
system.cpu.itb_walker_cache.tags.warmup_cycle            0                       # Cycle when the warmup percentage was hit.
system.cpu.itb_walker_cache.tags.tag_accesses            0                       # Number of tag accesses
system.cpu.itb_walker_cache.tags.data_accesses            0                       # Number of data accesses
system.cpu.itb_walker_cache.tags.power_state.pwrStateResidencyTicks::UNDEFINED   1205923500                       # Cumulative time (in ticks) in various power states
system.cpu.power_state.pwrStateResidencyTicks::ON   1205923500                       # Cumulative time (in ticks) in various power states
system.cpu.thread_0.numInsts                        0                       # Number of Instructions committed
system.cpu.thread_0.numOps                          0                       # Number of Ops committed
system.cpu.thread_0.numMemRefs                      0                       # Number of Memory References
system.cpu_clk_domain.clock                       500                       # Clock period in ticks
system.cpu_voltage_domain.voltage                   1                       # Voltage in Volts
system.l2.demand_hits::.cpu.inst                    8                       # number of demand (read+write) hits
system.l2.demand_hits::.cpu.data                   93                       # number of demand (read+write) hits
system.l2.demand_hits::total                      101                       # number of demand (read+write) hits
system.l2.overall_hits::.cpu.inst                   8                       # number of overall hits
system.l2.overall_hits::.cpu.data                  93                       # number of overall hits
system.l2.overall_hits::total                     101                       # number of overall hits
system.l2.demand_misses::.cpu.inst               1587                       # number of demand (read+write) misses
system.l2.demand_misses::.cpu.data               2868                       # number of demand (read+write) misses
system.l2.demand_misses::total                   4455                       # number of demand (read+write) misses
system.l2.overall_misses::.cpu.inst              1587                       # number of overall misses
system.l2.overall_misses::.cpu.data              2868                       # number of overall misses
system.l2.overall_misses::total                  4455                       # number of overall misses
system.l2.demand_miss_latency::.cpu.inst    119440000                       # number of demand (read+write) miss cycles
system.l2.demand_miss_latency::.cpu.data    221090000                       # number of demand (read+write) miss cycles
system.l2.demand_miss_latency::total        340530000                       # number of demand (read+write) miss cycles
system.l2.overall_miss_latency::.cpu.inst    119440000                       # number of overall miss cycles
system.l2.overall_miss_latency::.cpu.data    221090000                       # number of overall miss cycles
system.l2.overall_miss_latency::total       340530000                       # number of overall miss cycles
system.l2.demand_accesses::.cpu.inst             1595                       # number of demand (read+write) accesses
system.l2.demand_accesses::.cpu.data             2961                       # number of demand (read+write) accesses
system.l2.demand_accesses::total                 4556                       # number of demand (read+write) accesses
system.l2.overall_accesses::.cpu.inst            1595                       # number of overall (read+write) accesses
system.l2.overall_accesses::.cpu.data            2961                       # number of overall (read+write) accesses
system.l2.overall_accesses::total                4556                       # number of overall (read+write) accesses
system.l2.demand_miss_rate::.cpu.inst        0.994984                       # miss rate for demand accesses
system.l2.demand_miss_rate::.cpu.data        0.968592                       # miss rate for demand accesses
system.l2.demand_miss_rate::total            0.977831                       # miss rate for demand accesses
system.l2.overall_miss_rate::.cpu.inst       0.994984                       # miss rate for overall accesses
system.l2.overall_miss_rate::.cpu.data       0.968592                       # miss rate for overall accesses
system.l2.overall_miss_rate::total           0.977831                       # miss rate for overall accesses
system.l2.demand_avg_miss_latency::.cpu.inst 75261.499685                       # average overall miss latency
system.l2.demand_avg_miss_latency::.cpu.data 77088.563459                       # average overall miss latency
system.l2.demand_avg_miss_latency::total 76437.710438                       # average overall miss latency
system.l2.overall_avg_miss_latency::.cpu.inst 75261.499685                       # average overall miss latency
system.l2.overall_avg_miss_latency::.cpu.data 77088.563459                       # average overall miss latency
system.l2.overall_avg_miss_latency::total 76437.710438                       # average overall miss latency
system.l2.blocked_cycles::no_mshrs                  0                       # number of cycles access was blocked
system.l2.blocked_cycles::no_targets                0                       # number of cycles access was blocked
system.l2.blocked::no_mshrs                         0                       # number of cycles access was blocked
system.l2.blocked::no_targets                       0                       # number of cycles access was blocked
system.l2.avg_blocked_cycles::no_mshrs            nan                       # average number of cycles each access was blocked
system.l2.avg_blocked_cycles::no_targets          nan                       # average number of cycles each access was blocked
system.l2.writebacks::.writebacks                 130                       # number of writebacks
system.l2.writebacks::total                       130                       # number of writebacks
system.l2.demand_mshr_misses::.cpu.inst          1587                       # number of demand (read+write) MSHR misses
system.l2.demand_mshr_misses::.cpu.data          2868                       # number of demand (read+write) MSHR misses
system.l2.demand_mshr_misses::total              4455                       # number of demand (read+write) MSHR misses
system.l2.overall_mshr_misses::.cpu.inst         1587                       # number of overall MSHR misses
system.l2.overall_mshr_misses::.cpu.data         2868                       # number of overall MSHR misses
system.l2.overall_mshr_misses::total             4455                       # number of overall MSHR misses
system.l2.demand_mshr_miss_latency::.cpu.inst    103570000                       # number of demand (read+write) MSHR miss cycles
system.l2.demand_mshr_miss_latency::.cpu.data    192410000                       # number of demand (read+write) MSHR miss cycles
system.l2.demand_mshr_miss_latency::total    295980000                       # number of demand (read+write) MSHR miss cycles
system.l2.overall_mshr_miss_latency::.cpu.inst    103570000                       # number of overall MSHR miss cycles
system.l2.overall_mshr_miss_latency::.cpu.data    192410000                       # number of overall MSHR miss cycles
system.l2.overall_mshr_miss_latency::total    295980000                       # number of overall MSHR miss cycles
system.l2.demand_mshr_miss_rate::.cpu.inst     0.994984                       # mshr miss rate for demand accesses
system.l2.demand_mshr_miss_rate::.cpu.data     0.968592                       # mshr miss rate for demand accesses
system.l2.demand_mshr_miss_rate::total       0.977831                       # mshr miss rate for demand accesses
system.l2.overall_mshr_miss_rate::.cpu.inst     0.994984                       # mshr miss rate for overall accesses
system.l2.overall_mshr_miss_rate::.cpu.data     0.968592                       # mshr miss rate for overall accesses
system.l2.overall_mshr_miss_rate::total      0.977831                       # mshr miss rate for overall accesses
system.l2.demand_avg_mshr_miss_latency::.cpu.inst 65261.499685                       # average overall mshr miss latency
system.l2.demand_avg_mshr_miss_latency::.cpu.data 67088.563459                       # average overall mshr miss latency
system.l2.demand_avg_mshr_miss_latency::total 66437.710438                       # average overall mshr miss latency
system.l2.overall_avg_mshr_miss_latency::.cpu.inst 65261.499685                       # average overall mshr miss latency
system.l2.overall_avg_mshr_miss_latency::.cpu.data 67088.563459                       # average overall mshr miss latency
system.l2.overall_avg_mshr_miss_latency::total 66437.710438                       # average overall mshr miss latency
system.l2.replacements                           3003                       # number of replacements
system.l2.WritebackDirty_hits::.writebacks          358                       # number of WritebackDirty hits
system.l2.WritebackDirty_hits::total              358                       # number of WritebackDirty hits
system.l2.WritebackDirty_accesses::.writebacks          358                       # number of WritebackDirty accesses(hits+misses)
system.l2.WritebackDirty_accesses::total          358                       # number of WritebackDirty accesses(hits+misses)
system.l2.WritebackClean_hits::.writebacks          262                       # number of WritebackClean hits
system.l2.WritebackClean_hits::total              262                       # number of WritebackClean hits
system.l2.WritebackClean_accesses::.writebacks          262                       # number of WritebackClean accesses(hits+misses)
system.l2.WritebackClean_accesses::total          262                       # number of WritebackClean accesses(hits+misses)
system.l2.CleanEvict_mshr_misses::.writebacks          557                       # number of CleanEvict MSHR misses
system.l2.CleanEvict_mshr_misses::total           557                       # number of CleanEvict MSHR misses
system.l2.CleanEvict_mshr_miss_rate::.writebacks          inf                       # mshr miss rate for CleanEvict accesses
system.l2.CleanEvict_mshr_miss_rate::total          inf                       # mshr miss rate for CleanEvict accesses
system.l2.ReadExReq_hits::.cpu.data                 7                       # number of ReadExReq hits
system.l2.ReadExReq_hits::total                     7                       # number of ReadExReq hits
system.l2.ReadExReq_misses::.cpu.data             615                       # number of ReadExReq misses
system.l2.ReadExReq_misses::total                 615                       # number of ReadExReq misses
system.l2.ReadExReq_miss_latency::.cpu.data     46403000                       # number of ReadExReq miss cycles
system.l2.ReadExReq_miss_latency::total      46403000                       # number of ReadExReq miss cycles
system.l2.ReadExReq_accesses::.cpu.data           622                       # number of ReadExReq accesses(hits+misses)
system.l2.ReadExReq_accesses::total               622                       # number of ReadExReq accesses(hits+misses)
system.l2.ReadExReq_miss_rate::.cpu.data     0.988746                       # miss rate for ReadExReq accesses
system.l2.ReadExReq_miss_rate::total         0.988746                       # miss rate for ReadExReq accesses
system.l2.ReadExReq_avg_miss_latency::.cpu.data 75452.032520                       # average ReadExReq miss latency
system.l2.ReadExReq_avg_miss_latency::total 75452.032520                       # average ReadExReq miss latency
system.l2.ReadExReq_mshr_misses::.cpu.data          615                       # number of ReadExReq MSHR misses
system.l2.ReadExReq_mshr_misses::total            615                       # number of ReadExReq MSHR misses
system.l2.ReadExReq_mshr_miss_latency::.cpu.data     40253000                       # number of ReadExReq MSHR miss cycles
system.l2.ReadExReq_mshr_miss_latency::total     40253000                       # number of ReadExReq MSHR miss cycles
system.l2.ReadExReq_mshr_miss_rate::.cpu.data     0.988746                       # mshr miss rate for ReadExReq accesses
system.l2.ReadExReq_mshr_miss_rate::total     0.988746                       # mshr miss rate for ReadExReq accesses
system.l2.ReadExReq_avg_mshr_miss_latency::.cpu.data 65452.032520                       # average ReadExReq mshr miss latency
system.l2.ReadExReq_avg_mshr_miss_latency::total 65452.032520                       # average ReadExReq mshr miss latency
system.l2.ReadCleanReq_hits::.cpu.inst              8                       # number of ReadCleanReq hits
system.l2.ReadCleanReq_hits::total                  8                       # number of ReadCleanReq hits
system.l2.ReadCleanReq_misses::.cpu.inst         1587                       # number of ReadCleanReq misses
system.l2.ReadCleanReq_misses::total             1587                       # number of ReadCleanReq misses
system.l2.ReadCleanReq_miss_latency::.cpu.inst    119440000                       # number of ReadCleanReq miss cycles
system.l2.ReadCleanReq_miss_latency::total    119440000                       # number of ReadCleanReq miss cycles
system.l2.ReadCleanReq_accesses::.cpu.inst         1595                       # number of ReadCleanReq accesses(hits+misses)
system.l2.ReadCleanReq_accesses::total           1595                       # number of ReadCleanReq accesses(hits+misses)
system.l2.ReadCleanReq_miss_rate::.cpu.inst     0.994984                       # miss rate for ReadCleanReq accesses
system.l2.ReadCleanReq_miss_rate::total      0.994984                       # miss rate for ReadCleanReq accesses
system.l2.ReadCleanReq_avg_miss_latency::.cpu.inst 75261.499685                       # average ReadCleanReq miss latency
system.l2.ReadCleanReq_avg_miss_latency::total 75261.499685                       # average ReadCleanReq miss latency
system.l2.ReadCleanReq_mshr_misses::.cpu.inst         1587                       # number of ReadCleanReq MSHR misses
system.l2.ReadCleanReq_mshr_misses::total         1587                       # number of ReadCleanReq MSHR misses
system.l2.ReadCleanReq_mshr_miss_latency::.cpu.inst    103570000                       # number of ReadCleanReq MSHR miss cycles
system.l2.ReadCleanReq_mshr_miss_latency::total    103570000                       # number of ReadCleanReq MSHR miss cycles
system.l2.ReadCleanReq_mshr_miss_rate::.cpu.inst     0.994984                       # mshr miss rate for ReadCleanReq accesses
system.l2.ReadCleanReq_mshr_miss_rate::total     0.994984                       # mshr miss rate for ReadCleanReq accesses
system.l2.ReadCleanReq_avg_mshr_miss_latency::.cpu.inst 65261.499685                       # average ReadCleanReq mshr miss latency
system.l2.ReadCleanReq_avg_mshr_miss_latency::total 65261.499685                       # average ReadCleanReq mshr miss latency
system.l2.ReadSharedReq_hits::.cpu.data            86                       # number of ReadSharedReq hits
system.l2.ReadSharedReq_hits::total                86                       # number of ReadSharedReq hits
system.l2.ReadSharedReq_misses::.cpu.data         2253                       # number of ReadSharedReq misses
system.l2.ReadSharedReq_misses::total            2253                       # number of ReadSharedReq misses
system.l2.ReadSharedReq_miss_latency::.cpu.data    174687000                       # number of ReadSharedReq miss cycles
system.l2.ReadSharedReq_miss_latency::total    174687000                       # number of ReadSharedReq miss cycles
system.l2.ReadSharedReq_accesses::.cpu.data         2339                       # number of ReadSharedReq accesses(hits+misses)
system.l2.ReadSharedReq_accesses::total          2339                       # number of ReadSharedReq accesses(hits+misses)
system.l2.ReadSharedReq_miss_rate::.cpu.data     0.963232                       # miss rate for ReadSharedReq accesses
system.l2.ReadSharedReq_miss_rate::total     0.963232                       # miss rate for ReadSharedReq accesses
system.l2.ReadSharedReq_avg_miss_latency::.cpu.data 77535.286285                       # average ReadSharedReq miss latency
system.l2.ReadSharedReq_avg_miss_latency::total 77535.286285                       # average ReadSharedReq miss latency
system.l2.ReadSharedReq_mshr_misses::.cpu.data         2253                       # number of ReadSharedReq MSHR misses
system.l2.ReadSharedReq_mshr_misses::total         2253                       # number of ReadSharedReq MSHR misses
system.l2.ReadSharedReq_mshr_miss_latency::.cpu.data    152157000                       # number of ReadSharedReq MSHR miss cycles
system.l2.ReadSharedReq_mshr_miss_latency::total    152157000                       # number of ReadSharedReq MSHR miss cycles
system.l2.ReadSharedReq_mshr_miss_rate::.cpu.data     0.963232                       # mshr miss rate for ReadSharedReq accesses
system.l2.ReadSharedReq_mshr_miss_rate::total     0.963232                       # mshr miss rate for ReadSharedReq accesses
system.l2.ReadSharedReq_avg_mshr_miss_latency::.cpu.data 67535.286285                       # average ReadSharedReq mshr miss latency
system.l2.ReadSharedReq_avg_mshr_miss_latency::total 67535.286285                       # average ReadSharedReq mshr miss latency
system.l2.power_state.pwrStateResidencyTicks::UNDEFINED   1205923500                       # Cumulative time (in ticks) in various power states
system.l2.tags.tagsinuse                  1741.802854                       # Cycle average of tags in use
system.l2.tags.total_refs                        5252                       # Total number of references to valid blocks.
system.l2.tags.sampled_refs                      5034                       # Sample count of references to valid blocks.
system.l2.tags.avg_refs                      1.043306                       # Average number of references to valid blocks.
system.l2.tags.warmup_cycle                     77000                       # Cycle when the warmup percentage was hit.
system.l2.tags.occ_blocks::.writebacks     193.135054                       # Average occupied blocks per requestor
system.l2.tags.occ_blocks::.cpu.inst       465.557468                       # Average occupied blocks per requestor
system.l2.tags.occ_blocks::.cpu.data      1083.110332                       # Average occupied blocks per requestor
system.l2.tags.occ_percent::.writebacks      0.094304                       # Average percentage of cache occupancy
system.l2.tags.occ_percent::.cpu.inst        0.227323                       # Average percentage of cache occupancy
system.l2.tags.occ_percent::.cpu.data        0.528862                       # Average percentage of cache occupancy
system.l2.tags.occ_percent::total            0.850490                       # Average percentage of cache occupancy
system.l2.tags.occ_task_id_blocks::1024          2031                       # Occupied blocks per task id
system.l2.tags.age_task_id_blocks_1024::0          118                       # Occupied blocks per task id
system.l2.tags.age_task_id_blocks_1024::1          176                       # Occupied blocks per task id
system.l2.tags.age_task_id_blocks_1024::2         1519                       # Occupied blocks per task id
system.l2.tags.age_task_id_blocks_1024::3          218                       # Occupied blocks per task id
system.l2.tags.occ_task_id_percent::1024     0.991699                       # Percentage of cache occupancy per task id
system.l2.tags.tag_accesses                     16652                       # Number of tag accesses
system.l2.tags.data_accesses                    16652                       # Number of data accesses
system.l2.tags.power_state.pwrStateResidencyTicks::UNDEFINED   1205923500                       # Cumulative time (in ticks) in various power states
system.mem_ctrls.avgPriority_.writebacks::samples       130.00                       # Average QoS priority value for accepted requests
system.mem_ctrls.avgPriority_.cpu.inst::samples      1587.00                       # Average QoS priority value for accepted requests
system.mem_ctrls.avgPriority_.cpu.data::samples      2862.00                       # Average QoS priority value for accepted requests
system.mem_ctrls.priorityMinLatency      0.000000018750                       # per QoS priority minimum request to response latency (s)
system.mem_ctrls.priorityMaxLatency      0.001152412500                       # per QoS priority maximum request to response latency (s)
system.mem_ctrls.numReadWriteTurnArounds            6                       # Number of turnarounds from READ to WRITE
system.mem_ctrls.numWriteReadTurnArounds            6                       # Number of turnarounds from WRITE to READ
system.mem_ctrls.numStayReadState                9332                       # Number of times bus staying in READ state
system.mem_ctrls.numStayWriteState                 94                       # Number of times bus staying in WRITE state
system.mem_ctrls.readReqs                        4455                       # Number of read requests accepted
system.mem_ctrls.writeReqs                        130                       # Number of write requests accepted
system.mem_ctrls.readBursts                      4455                       # Number of controller read bursts, including those serviced by the write queue
system.mem_ctrls.writeBursts                      130                       # Number of controller write bursts, including those merged in the write queue
system.mem_ctrls.servicedByWrQ                      6                       # Number of controller read bursts serviced by the write queue
system.mem_ctrls.mergedWrBursts                     0                       # Number of controller write bursts merged with an existing one
system.mem_ctrls.neitherReadNorWriteReqs            0                       # Number of requests that are neither read nor write
system.mem_ctrls.avgRdQLen                       1.00                       # Average read queue length when enqueuing
system.mem_ctrls.avgWrQLen                      14.65                       # Average write queue length when enqueuing
system.mem_ctrls.numRdRetry                         0                       # Number of times read queue was full causing retry
system.mem_ctrls.numWrRetry                         0                       # Number of times write queue was full causing retry
system.mem_ctrls.readPktSize::0                     0                       # Read request sizes (log2)
system.mem_ctrls.readPktSize::1                     0                       # Read request sizes (log2)
system.mem_ctrls.readPktSize::2                     0                       # Read request sizes (log2)
system.mem_ctrls.readPktSize::3                     0                       # Read request sizes (log2)
system.mem_ctrls.readPktSize::4                     0                       # Read request sizes (log2)
system.mem_ctrls.readPktSize::5                     0                       # Read request sizes (log2)
system.mem_ctrls.readPktSize::6                  4455                       # Read request sizes (log2)
system.mem_ctrls.writePktSize::0                    0                       # Write request sizes (log2)
system.mem_ctrls.writePktSize::1                    0                       # Write request sizes (log2)
system.mem_ctrls.writePktSize::2                    0                       # Write request sizes (log2)
system.mem_ctrls.writePktSize::3                    0                       # Write request sizes (log2)
system.mem_ctrls.writePktSize::4                    0                       # Write request sizes (log2)
system.mem_ctrls.writePktSize::5                    0                       # Write request sizes (log2)
system.mem_ctrls.writePktSize::6                  130                       # Write request sizes (log2)
system.mem_ctrls.rdQLenPdf::0                    4449                       # What read queue length does an incoming req see
system.mem_ctrls.rdQLenPdf::1                       0                       # What read queue length does an incoming req see
system.mem_ctrls.rdQLenPdf::2                       0                       # What read queue length does an incoming req see
system.mem_ctrls.rdQLenPdf::3                       0                       # What read queue length does an incoming req see
system.mem_ctrls.rdQLenPdf::4                       0                       # What read queue length does an incoming req see
system.mem_ctrls.rdQLenPdf::5                       0                       # What read queue length does an incoming req see
system.mem_ctrls.rdQLenPdf::6                       0                       # What read queue length does an incoming req see
system.mem_ctrls.rdQLenPdf::7                       0                       # What read queue length does an incoming req see
system.mem_ctrls.rdQLenPdf::8                       0                       # What read queue length does an incoming req see
system.mem_ctrls.rdQLenPdf::9                       0                       # What read queue length does an incoming req see
system.mem_ctrls.rdQLenPdf::10                      0                       # What read queue length does an incoming req see
system.mem_ctrls.rdQLenPdf::11                      0                       # What read queue length does an incoming req see
system.mem_ctrls.rdQLenPdf::12                      0                       # What read queue length does an incoming req see
system.mem_ctrls.rdQLenPdf::13                      0                       # What read queue length does an incoming req see
system.mem_ctrls.rdQLenPdf::14                      0                       # What read queue length does an incoming req see
system.mem_ctrls.rdQLenPdf::15                      0                       # What read queue length does an incoming req see
system.mem_ctrls.rdQLenPdf::16                      0                       # What read queue length does an incoming req see
system.mem_ctrls.rdQLenPdf::17                      0                       # What read queue length does an incoming req see
system.mem_ctrls.rdQLenPdf::18                      0                       # What read queue length does an incoming req see
system.mem_ctrls.rdQLenPdf::19                      0                       # What read queue length does an incoming req see
system.mem_ctrls.rdQLenPdf::20                      0                       # What read queue length does an incoming req see
system.mem_ctrls.rdQLenPdf::21                      0                       # What read queue length does an incoming req see
system.mem_ctrls.rdQLenPdf::22                      0                       # What read queue length does an incoming req see
system.mem_ctrls.rdQLenPdf::23                      0                       # What read queue length does an incoming req see
system.mem_ctrls.rdQLenPdf::24                      0                       # What read queue length does an incoming req see
system.mem_ctrls.rdQLenPdf::25                      0                       # What read queue length does an incoming req see
system.mem_ctrls.rdQLenPdf::26                      0                       # What read queue length does an incoming req see
system.mem_ctrls.rdQLenPdf::27                      0                       # What read queue length does an incoming req see
system.mem_ctrls.rdQLenPdf::28                      0                       # What read queue length does an incoming req see
system.mem_ctrls.rdQLenPdf::29                      0                       # What read queue length does an incoming req see
system.mem_ctrls.rdQLenPdf::30                      0                       # What read queue length does an incoming req see
system.mem_ctrls.rdQLenPdf::31                      0                       # What read queue length does an incoming req see
system.mem_ctrls.wrQLenPdf::0                       1                       # What write queue length does an incoming req see
system.mem_ctrls.wrQLenPdf::1                       1                       # What write queue length does an incoming req see
system.mem_ctrls.wrQLenPdf::2                       1                       # What write queue length does an incoming req see
system.mem_ctrls.wrQLenPdf::3                       1                       # What write queue length does an incoming req see
system.mem_ctrls.wrQLenPdf::4                       1                       # What write queue length does an incoming req see
system.mem_ctrls.wrQLenPdf::5                       1                       # What write queue length does an incoming req see
system.mem_ctrls.wrQLenPdf::6                       1                       # What write queue length does an incoming req see
system.mem_ctrls.wrQLenPdf::7                       1                       # What write queue length does an incoming req see
system.mem_ctrls.wrQLenPdf::8                       1                       # What write queue length does an incoming req see
system.mem_ctrls.wrQLenPdf::9                       1                       # What write queue length does an incoming req see
system.mem_ctrls.wrQLenPdf::10                      1                       # What write queue length does an incoming req see
system.mem_ctrls.wrQLenPdf::11                      1                       # What write queue length does an incoming req see
system.mem_ctrls.wrQLenPdf::12                      1                       # What write queue length does an incoming req see
system.mem_ctrls.wrQLenPdf::13                      1                       # What write queue length does an incoming req see
system.mem_ctrls.wrQLenPdf::14                      1                       # What write queue length does an incoming req see
system.mem_ctrls.wrQLenPdf::15                      3                       # What write queue length does an incoming req see
system.mem_ctrls.wrQLenPdf::16                      3                       # What write queue length does an incoming req see
system.mem_ctrls.wrQLenPdf::17                      7                       # What write queue length does an incoming req see
system.mem_ctrls.wrQLenPdf::18                      7                       # What write queue length does an incoming req see
system.mem_ctrls.wrQLenPdf::19                      7                       # What write queue length does an incoming req see
system.mem_ctrls.wrQLenPdf::20                      7                       # What write queue length does an incoming req see
system.mem_ctrls.wrQLenPdf::21                      7                       # What write queue length does an incoming req see
system.mem_ctrls.wrQLenPdf::22                      7                       # What write queue length does an incoming req see
system.mem_ctrls.wrQLenPdf::23                      7                       # What write queue length does an incoming req see
system.mem_ctrls.wrQLenPdf::24                      7                       # What write queue length does an incoming req see
system.mem_ctrls.wrQLenPdf::25                      7                       # What write queue length does an incoming req see
system.mem_ctrls.wrQLenPdf::26                      7                       # What write queue length does an incoming req see
system.mem_ctrls.wrQLenPdf::27                      7                       # What write queue length does an incoming req see
system.mem_ctrls.wrQLenPdf::28                      7                       # What write queue length does an incoming req see
system.mem_ctrls.wrQLenPdf::29                      7                       # What write queue length does an incoming req see
system.mem_ctrls.wrQLenPdf::30                      6                       # What write queue length does an incoming req see
system.mem_ctrls.wrQLenPdf::31                      6                       # What write queue length does an incoming req see
system.mem_ctrls.wrQLenPdf::32                      6                       # What write queue length does an incoming req see
system.mem_ctrls.wrQLenPdf::33                      0                       # What write queue length does an incoming req see
system.mem_ctrls.wrQLenPdf::34                      0                       # What write queue length does an incoming req see
system.mem_ctrls.wrQLenPdf::35                      0                       # What write queue length does an incoming req see
system.mem_ctrls.wrQLenPdf::36                      0                       # What write queue length does an incoming req see
system.mem_ctrls.wrQLenPdf::37                      0                       # What write queue length does an incoming req see
system.mem_ctrls.wrQLenPdf::38                      0                       # What write queue length does an incoming req see
system.mem_ctrls.wrQLenPdf::39                      0                       # What write queue length does an incoming req see
system.mem_ctrls.wrQLenPdf::40                      0                       # What write queue length does an incoming req see
system.mem_ctrls.wrQLenPdf::41                      0                       # What write queue length does an incoming req see
system.mem_ctrls.wrQLenPdf::42                      0                       # What write queue length does an incoming req see
system.mem_ctrls.wrQLenPdf::43                      0                       # What write queue length does an incoming req see
system.mem_ctrls.wrQLenPdf::44                      0                       # What write queue length does an incoming req see
system.mem_ctrls.wrQLenPdf::45                      0                       # What write queue length does an incoming req see
system.mem_ctrls.wrQLenPdf::46                      0                       # What write queue length does an incoming req see
system.mem_ctrls.wrQLenPdf::47                      0                       # What write queue length does an incoming req see
system.mem_ctrls.wrQLenPdf::48                      0                       # What write queue length does an incoming req see
system.mem_ctrls.wrQLenPdf::49                      0                       # What write queue length does an incoming req see
system.mem_ctrls.wrQLenPdf::50                      0                       # What write queue length does an incoming req see
system.mem_ctrls.wrQLenPdf::51                      0                       # What write queue length does an incoming req see
system.mem_ctrls.wrQLenPdf::52                      0                       # What write queue length does an incoming req see
system.mem_ctrls.wrQLenPdf::53                      0                       # What write queue length does an incoming req see
system.mem_ctrls.wrQLenPdf::54                      0                       # What write queue length does an incoming req see
system.mem_ctrls.wrQLenPdf::55                      0                       # What write queue length does an incoming req see
system.mem_ctrls.wrQLenPdf::56                      0                       # What write queue length does an incoming req see
system.mem_ctrls.wrQLenPdf::57                      0                       # What write queue length does an incoming req see
system.mem_ctrls.wrQLenPdf::58                      0                       # What write queue length does an incoming req see
system.mem_ctrls.wrQLenPdf::59                      0                       # What write queue length does an incoming req see
system.mem_ctrls.wrQLenPdf::60                      0                       # What write queue length does an incoming req see
system.mem_ctrls.wrQLenPdf::61                      0                       # What write queue length does an incoming req see
system.mem_ctrls.wrQLenPdf::62                      0                       # What write queue length does an incoming req see
system.mem_ctrls.wrQLenPdf::63                      0                       # What write queue length does an incoming req see
system.mem_ctrls.rdPerTurnAround::samples            6                       # Reads before turning the bus around for writes
system.mem_ctrls.rdPerTurnAround::mean     724.333333                       # Reads before turning the bus around for writes
system.mem_ctrls.rdPerTurnAround::gmean    270.272789                       # Reads before turning the bus around for writes
system.mem_ctrls.rdPerTurnAround::stdev   1347.818633                       # Reads before turning the bus around for writes
system.mem_ctrls.rdPerTurnAround::0-127             2     33.33%     33.33% # Reads before turning the bus around for writes
system.mem_ctrls.rdPerTurnAround::128-255            2     33.33%     66.67% # Reads before turning the bus around for writes
system.mem_ctrls.rdPerTurnAround::256-383            1     16.67%     83.33% # Reads before turning the bus around for writes
system.mem_ctrls.rdPerTurnAround::3456-3583            1     16.67%    100.00% # Reads before turning the bus around for writes
system.mem_ctrls.rdPerTurnAround::total             6                       # Reads before turning the bus around for writes
system.mem_ctrls.wrPerTurnAround::samples            6                       # Writes before turning the bus around for reads
system.mem_ctrls.wrPerTurnAround::mean      16.666667                       # Writes before turning the bus around for reads
system.mem_ctrls.wrPerTurnAround::gmean     16.640671                       # Writes before turning the bus around for reads
system.mem_ctrls.wrPerTurnAround::stdev      1.032796                       # Writes before turning the bus around for reads
system.mem_ctrls.wrPerTurnAround::16                4     66.67%     66.67% # Writes before turning the bus around for reads
system.mem_ctrls.wrPerTurnAround::18                2     33.33%    100.00% # Writes before turning the bus around for reads
system.mem_ctrls.wrPerTurnAround::total             6                       # Writes before turning the bus around for reads
system.mem_ctrls.bytesReadWrQ                     384                       # Total number of bytes read from write queue
system.mem_ctrls.bytesReadSys                  285120                       # Total read bytes from the system interface side
system.mem_ctrls.bytesWrittenSys                 8320                       # Total written bytes from the system interface side
system.mem_ctrls.avgRdBWSys                    236.43                       # Average system read bandwidth in MiByte/s
system.mem_ctrls.avgWrBWSys                      6.90                       # Average system write bandwidth in MiByte/s
system.mem_ctrls.totGap                    1205849500                       # Total gap between requests
system.mem_ctrls.avgGap                     262998.80                       # Average gap between requests
system.mem_ctrls.requestorReadBytes::.cpu.inst       101568                       # Per-requestor bytes read from memory
system.mem_ctrls.requestorReadBytes::.cpu.data       183168                       # Per-requestor bytes read from memory
system.mem_ctrls.requestorWriteBytes::.writebacks         6400                       # Per-requestor bytes write to memory
system.mem_ctrls.requestorReadRate::.cpu.inst 84224248.055535867810                       # Per-requestor bytes read from memory rate (Bytes/sec)
[...]
system.mem_ctrls.dram.bw_total::.cpu.data    152208660                       # Total bandwidth to/from this memory (bytes/s)
system.mem_ctrls.dram.bw_total::total       243332185                       # Total bandwidth to/from this memory (bytes/s)
system.mem_ctrls.dram.readBursts                 4449                       # Number of DRAM read bursts
system.mem_ctrls.dram.writeBursts                 100                       # Number of DRAM write bursts
system.mem_ctrls.dram.perBankRdBursts::0          337                       # Per bank write bursts
system.mem_ctrls.dram.perBankRdBursts::1          249                       # Per bank write bursts
system.mem_ctrls.dram.perBankRdBursts::2          229                       # Per bank write bursts
system.mem_ctrls.dram.perBankRdBursts::3          315                       # Per bank write bursts
system.mem_ctrls.dram.perBankRdBursts::4          289                       # Per bank write bursts
system.mem_ctrls.dram.perBankRdBursts::5          239                       # Per bank write bursts
system.mem_ctrls.dram.perBankRdBursts::6          272                       # Per bank write bursts
system.mem_ctrls.dram.perBankRdBursts::7          182                       # Per bank write bursts
system.mem_ctrls.dram.perBankRdBursts::8          233                       # Per bank write bursts
system.mem_ctrls.dram.perBankRdBursts::9          430                       # Per bank write bursts
system.mem_ctrls.dram.perBankRdBursts::10          387                       # Per bank write bursts
system.mem_ctrls.dram.perBankRdBursts::11          328                       # Per bank write bursts
system.mem_ctrls.dram.perBankRdBursts::12          266                       # Per bank write bursts
system.mem_ctrls.dram.perBankRdBursts::13          195                       # Per bank write bursts
system.mem_ctrls.dram.perBankRdBursts::14          157                       # Per bank write bursts
system.mem_ctrls.dram.perBankRdBursts::15          341                       # Per bank write bursts
system.mem_ctrls.dram.perBankWrBursts::0            8                       # Per bank write bursts
system.mem_ctrls.dram.perBankWrBursts::1            0                       # Per bank write bursts
system.mem_ctrls.dram.perBankWrBursts::2            1                       # Per bank write bursts
system.mem_ctrls.dram.perBankWrBursts::3            0                       # Per bank write bursts
system.mem_ctrls.dram.perBankWrBursts::4            5                       # Per bank write bursts
system.mem_ctrls.dram.perBankWrBursts::5            0                       # Per bank write bursts
system.mem_ctrls.dram.perBankWrBursts::6            0                       # Per bank write bursts
system.mem_ctrls.dram.perBankWrBursts::7           11                       # Per bank write bursts
system.mem_ctrls.dram.perBankWrBursts::8            8                       # Per bank write bursts
system.mem_ctrls.dram.perBankWrBursts::9           28                       # Per bank write bursts
system.mem_ctrls.dram.perBankWrBursts::10           18                       # Per bank write bursts
system.mem_ctrls.dram.perBankWrBursts::11            7                       # Per bank write bursts
system.mem_ctrls.dram.perBankWrBursts::12            3                       # Per bank write bursts
system.mem_ctrls.dram.perBankWrBursts::13            0                       # Per bank write bursts
system.mem_ctrls.dram.perBankWrBursts::14            0                       # Per bank write bursts
system.mem_ctrls.dram.perBankWrBursts::15           11                       # Per bank write bursts
system.mem_ctrls.dram.totQLat                30796000                       # Total ticks spent queuing
system.mem_ctrls.dram.totBusLat              22245000                       # Total ticks spent in databus transfers
system.mem_ctrls.dram.totMemAccLat          114214750                       # Total ticks spent from burst creation until serviced by the DRAM
system.mem_ctrls.dram.avgQLat                 6922.00                       # Average queueing delay per DRAM burst
system.mem_ctrls.dram.avgBusLat               5000.00                       # Average bus latency per DRAM burst
system.mem_ctrls.dram.avgMemAccLat           25672.00                       # Average memory access latency per DRAM burst
system.mem_ctrls.dram.readRowHits                3524                       # Number of row buffer hits during reads
system.mem_ctrls.dram.writeRowHits                 77                       # Number of row buffer hits during writes
system.mem_ctrls.dram.readRowHitRate            79.21                       # Row buffer hit rate for reads
system.mem_ctrls.dram.writeRowHitRate           77.00                       # Row buffer hit rate for writes
system.mem_ctrls.dram.bytesPerActivate::samples          938                       # Bytes accessed per row activation
system.mem_ctrls.dram.bytesPerActivate::mean   308.469083                       # Bytes accessed per row activation
system.mem_ctrls.dram.bytesPerActivate::gmean   190.786173                       # Bytes accessed per row activation
system.mem_ctrls.dram.bytesPerActivate::stdev   315.567517                       # Bytes accessed per row activation
system.mem_ctrls.dram.bytesPerActivate::0-127          299     31.88%     31.88% # Bytes accessed per row activation
system.mem_ctrls.dram.bytesPerActivate::128-255          255     27.19%     59.06% # Bytes accessed per row activation
system.mem_ctrls.dram.bytesPerActivate::256-383          121     12.90%     71.96% # Bytes accessed per row activation
system.mem_ctrls.dram.bytesPerActivate::384-511           71      7.57%     79.53% # Bytes accessed per row activation
system.mem_ctrls.dram.bytesPerActivate::512-639           28      2.99%     82.52% # Bytes accessed per row activation
system.mem_ctrls.dram.bytesPerActivate::640-767           27      2.88%     85.39% # Bytes accessed per row activation
system.mem_ctrls.dram.bytesPerActivate::768-895           20      2.13%     87.53% # Bytes accessed per row activation
system.mem_ctrls.dram.bytesPerActivate::896-1023           18      1.92%     89.45% # Bytes accessed per row activation
system.mem_ctrls.dram.bytesPerActivate::1024-1151           99     10.55%    100.00% # Bytes accessed per row activation
system.mem_ctrls.dram.bytesPerActivate::total          938                       # Bytes accessed per row activation
system.mem_ctrls.dram.bytesRead                284736                       # Total number of bytes read from DRAM
system.mem_ctrls.dram.bytesWritten               6400                       # Total number of bytes written to DRAM
system.mem_ctrls.dram.avgRdBW              236.114480                       # Average DRAM read bandwidth in MiBytes/s
system.mem_ctrls.dram.avgWrBW                5.307136                       # Average DRAM write bandwidth in MiBytes/s
system.mem_ctrls.dram.peakBW                 12800.00                       # Theoretical peak bandwidth in MiByte/s
system.mem_ctrls.dram.busUtil                    1.89                       # Data bus utilization in percentage
system.mem_ctrls.dram.busUtilRead                1.84                       # Data bus utilization in percentage for reads
system.mem_ctrls.dram.busUtilWrite               0.04                       # Data bus utilization in percentage for writes
system.mem_ctrls.dram.pageHitRate               79.16                       # Row buffer hit rate, read and write combined
system.mem_ctrls.dram.power_state.pwrStateResidencyTicks::UNDEFINED   1205923500                       # Cumulative time (in ticks) in various power states
system.mem_ctrls.dram.rank0.actEnergy         3648540                       # Energy for activate commands per rank (pJ)
system.mem_ctrls.dram.rank0.preEnergy         1924065                       # Energy for precharge commands per rank (pJ)
system.mem_ctrls.dram.rank0.readEnergy       15079680                       # Energy for read commands per rank (pJ)
system.mem_ctrls.dram.rank0.writeEnergy        130500                       # Energy for write commands per rank (pJ)
system.mem_ctrls.dram.rank0.refreshEnergy 94654560.000000                       # Energy for refresh commands per rank (pJ)
system.mem_ctrls.dram.rank0.actBackEnergy    280782570                       # Energy for active background per rank (pJ)
system.mem_ctrls.dram.rank0.preBackEnergy    226626240                       # Energy for precharge background per rank (pJ)
system.mem_ctrls.dram.rank0.actPowerDownEnergy            0                       # Energy for active power-down per rank (pJ)
system.mem_ctrls.dram.rank0.prePowerDownEnergy            0                       # Energy for precharge power-down per rank (pJ)
system.mem_ctrls.dram.rank0.selfRefreshEnergy            0                       # Energy for self refresh per rank (pJ)
system.mem_ctrls.dram.rank0.totalEnergy     622846155                       # Total energy per rank (pJ)
system.mem_ctrls.dram.rank0.averagePower   516.488944                       # Core power per rank (mW)
system.mem_ctrls.dram.rank0.totalIdleTime            0                       # Total Idle time Per DRAM Rank
system.mem_ctrls.dram.rank0.pwrStateTime::IDLE    586722750                       # Time in different power states
system.mem_ctrls.dram.rank0.pwrStateTime::REF     40040000                       # Time in different power states
system.mem_ctrls.dram.rank0.pwrStateTime::SREF            0                       # Time in different power states
system.mem_ctrls.dram.rank0.pwrStateTime::PRE_PDN            0                       # Time in different power states
system.mem_ctrls.dram.rank0.pwrStateTime::ACT    579160750                       # Time in different power states
system.mem_ctrls.dram.rank0.pwrStateTime::ACT_PDN            0                       # Time in different power states
system.mem_ctrls.dram.rank1.actEnergy         3120180                       # Energy for activate commands per rank (pJ)
system.mem_ctrls.dram.rank1.preEnergy         1635645                       # Energy for precharge commands per rank (pJ)
system.mem_ctrls.dram.rank1.readEnergy       16686180                       # Energy for read commands per rank (pJ)
system.mem_ctrls.dram.rank1.writeEnergy        391500                       # Energy for write commands per rank (pJ)
system.mem_ctrls.dram.rank1.refreshEnergy 94654560.000000                       # Energy for refresh commands per rank (pJ)
system.mem_ctrls.dram.rank1.actBackEnergy    290894370                       # Energy for active background per rank (pJ)
system.mem_ctrls.dram.rank1.preBackEnergy    218111040                       # Energy for precharge background per rank (pJ)
system.mem_ctrls.dram.rank1.actPowerDownEnergy            0                       # Energy for active power-down per rank (pJ)
system.mem_ctrls.dram.rank1.prePowerDownEnergy            0                       # Energy for precharge power-down per rank (pJ)
system.mem_ctrls.dram.rank1.selfRefreshEnergy            0                       # Energy for self refresh per rank (pJ)
system.mem_ctrls.dram.rank1.totalEnergy     625493475                       # Total energy per rank (pJ)
system.mem_ctrls.dram.rank1.averagePower   518.684208                       # Core power per rank (mW)
system.mem_ctrls.dram.rank1.totalIdleTime            0                       # Total Idle time Per DRAM Rank
system.mem_ctrls.dram.rank1.pwrStateTime::IDLE    564264000                       # Time in different power states
system.mem_ctrls.dram.rank1.pwrStateTime::REF     40040000                       # Time in different power states
system.mem_ctrls.dram.rank1.pwrStateTime::SREF            0                       # Time in different power states
system.mem_ctrls.dram.rank1.pwrStateTime::PRE_PDN            0                       # Time in different power states
system.mem_ctrls.dram.rank1.pwrStateTime::ACT    601619500                       # Time in different power states
system.mem_ctrls.dram.rank1.pwrStateTime::ACT_PDN            0                       # Time in different power states
system.mem_ctrls.power_state.pwrStateResidencyTicks::UNDEFINED   1205923500                       # Cumulative time (in ticks) in various power states
system.membus.trans_dist::ReadResp               3840                       # Transaction distribution
system.membus.trans_dist::WritebackDirty          130                       # Transaction distribution
system.membus.trans_dist::CleanEvict              665                       # Transaction distribution
system.membus.trans_dist::ReadExReq               615                       # Transaction distribution
system.membus.trans_dist::ReadExResp              615                       # Transaction distribution
system.membus.trans_dist::ReadSharedReq          3840                       # Transaction distribution
system.membus.pkt_count_system.l2.mem_side_port::system.mem_ctrls.port         9705                       # Packet count per connected requestor and responder (bytes)
system.membus.pkt_count_system.l2.mem_side_port::total         9705                       # Packet count per connected requestor and responder (bytes)
system.membus.pkt_count::total                   9705                       # Packet count per connected requestor and responder (bytes)
system.membus.pkt_size_system.l2.mem_side_port::system.mem_ctrls.port       293440                       # Cumulative packet size per connected requestor and responder (bytes)
system.membus.pkt_size_system.l2.mem_side_port::total       293440                       # Cumulative packet size per connected requestor and responder (bytes)
system.membus.pkt_size::total                  293440                       # Cumulative packet size per connected requestor and responder (bytes)
system.membus.snoops                                0                       # Total snoops (count)
system.membus.snoopTraffic                          0                       # Total snoop traffic (bytes)
system.membus.snoop_fanout::samples              4455                       # Request fanout histogram
system.membus.snoop_fanout::mean                    0                       # Request fanout histogram
system.membus.snoop_fanout::stdev                   0                       # Request fanout histogram
system.membus.snoop_fanout::underflows              0      0.00%      0.00% # Request fanout histogram
system.membus.snoop_fanout::0                    4455    100.00%    100.00% # Request fanout histogram
system.membus.snoop_fanout::1                       0      0.00%    100.00% # Request fanout histogram
system.membus.snoop_fanout::overflows               0      0.00%    100.00% # Request fanout histogram
system.membus.snoop_fanout::min_value               0                       # Request fanout histogram
system.membus.snoop_fanout::max_value               0                       # Request fanout histogram
system.membus.snoop_fanout::total                4455                       # Request fanout histogram
system.membus.power_state.pwrStateResidencyTicks::UNDEFINED   1205923500                       # Cumulative time (in ticks) in various power states
system.membus.reqLayer2.occupancy             5778500                       # Layer occupancy (ticks)
system.membus.reqLayer2.utilization               0.5                       # Layer utilization (%)
system.membus.respLayer1.occupancy           23658250                       # Layer occupancy (ticks)
system.membus.respLayer1.utilization              2.0                       # Layer utilization (%)
system.tol2bus.trans_dist::ReadResp              3934                       # Transaction distribution
system.tol2bus.trans_dist::WritebackDirty          488                       # Transaction distribution
system.tol2bus.trans_dist::WritebackClean          262                       # Transaction distribution
system.tol2bus.trans_dist::CleanEvict            3506                       # Transaction distribution
system.tol2bus.trans_dist::ReadExReq              622                       # Transaction distribution
system.tol2bus.trans_dist::ReadExResp             622                       # Transaction distribution
system.tol2bus.trans_dist::ReadCleanReq          1595                       # Transaction distribution
system.tol2bus.trans_dist::ReadSharedReq         2339                       # Transaction distribution
system.tol2bus.pkt_count_system.cpu.icache.mem_side_port::system.l2.cpu_side_port         3452                       # Packet count per connected requestor and responder (bytes)
system.tol2bus.pkt_count_system.cpu.dcache.mem_side_port::system.l2.cpu_side_port         6913                       # Packet count per connected requestor and responder (bytes)
system.tol2bus.pkt_count::total                 10365                       # Packet count per connected requestor and responder (bytes)
system.tol2bus.pkt_size_system.cpu.icache.mem_side_port::system.l2.cpu_side_port       118848                       # Cumulative packet size per connected requestor and responder (bytes)
system.tol2bus.pkt_size_system.cpu.dcache.mem_side_port::system.l2.cpu_side_port       212416                       # Cumulative packet size per connected requestor and responder (bytes)
system.tol2bus.pkt_size::total                 331264                       # Cumulative packet size per connected requestor and responder (bytes)
system.tol2bus.snoops                            3003                       # Total snoops (count)
system.tol2bus.snoopTraffic                      8320                       # Total snoop traffic (bytes)
system.tol2bus.snoop_fanout::samples             7559                       # Request fanout histogram
system.tol2bus.snoop_fanout::mean            0.365789                       # Request fanout histogram
system.tol2bus.snoop_fanout::stdev           0.481683                       # Request fanout histogram
system.tol2bus.snoop_fanout::underflows             0      0.00%      0.00% # Request fanout histogram
system.tol2bus.snoop_fanout::0                   4794     63.42%     63.42% # Request fanout histogram
system.tol2bus.snoop_fanout::1                   2765     36.58%    100.00% # Request fanout histogram
system.tol2bus.snoop_fanout::2                      0      0.00%    100.00% # Request fanout histogram
system.tol2bus.snoop_fanout::3                      0      0.00%    100.00% # Request fanout histogram
system.tol2bus.snoop_fanout::4                      0      0.00%    100.00% # Request fanout histogram
system.tol2bus.snoop_fanout::overflows              0      0.00%    100.00% # Request fanout histogram
system.tol2bus.snoop_fanout::min_value              0                       # Request fanout histogram
system.tol2bus.snoop_fanout::max_value              1                       # Request fanout histogram
system.tol2bus.snoop_fanout::total               7559                       # Request fanout histogram
system.tol2bus.power_state.pwrStateResidencyTicks::UNDEFINED   1205923500                       # Cumulative time (in ticks) in various power states
system.tol2bus.reqLayer0.occupancy            3524500                       # Layer occupancy (ticks)
system.tol2bus.reqLayer0.utilization              0.3                       # Layer utilization (%)
system.tol2bus.respLayer0.occupancy           2392500                       # Layer occupancy (ticks)
system.tol2bus.respLayer0.utilization             0.2                       # Layer utilization (%)
system.tol2bus.respLayer1.occupancy           4441500                       # Layer occupancy (ticks)
system.tol2bus.respLayer1.utilization             0.4                       # Layer utilization (%)
system.voltage_domain.voltage                       1                       # Voltage in Volts

---------- End Simulation Statistics   ----------
