
---------- Begin Simulation Statistics ----------
final_tick                                 1470935500                       # Number of ticks from beginning of simulation (restored from checkpoints and never reset)
host_inst_rate                                 338020                       # Simulator instruction rate (inst/s)
host_mem_usage                                 696176                       # Number of bytes of host memory used
host_op_rate                                   630907                       # Simulator op (including micro ops) rate (op/s)
host_seconds                                     1.39                       # Real time elapsed on the host
host_tick_rate                             1057349898                       # Simulator tick rate (ticks/s)
sim_freq                                 1000000000000                       # Frequency of simulated ticks
sim_insts                                      470192                       # Number of instructions simulated
sim_ops                                        877675                       # Number of ops (including micro ops) simulated
sim_seconds                                  0.001471                       # Number of seconds simulated
sim_ticks                                  1470935500                       # Number of ticks simulated
system.cpu.BranchMispred                         6084                       # Number of branch mispredictions
system.cpu.Branches                             72572                       # Number of branches fetched
system.cpu.committedInsts                      470192                       # Number of instructions committed
system.cpu.committedOps                        877675                       # Number of ops (including micro ops) committed
system.cpu.idle_fraction                     0.000000                       # Percentage of idle cycles
system.cpu.not_idle_fraction                 1.000000                       # Percentage of non-idle cycles
system.cpu.numCycles                          2941871                       # number of cpu cycles simulated
system.cpu.numWorkItemsCompleted                    0                       # number of work items this cpu completed
system.cpu.numWorkItemsStarted                      0                       # number of work items this cpu started
system.cpu.num_busy_cycles               2941870.998000                       # Number of busy cycles
system.cpu.num_cc_register_reads               329747                       # number of times the CC registers were read
system.cpu.num_cc_register_writes              220558                       # number of times the CC registers were written
system.cpu.num_conditional_control_insts        50036                       # number of instructions that are conditional controls
system.cpu.num_fp_alu_accesses                 253735                       # Number of float alu accesses
system.cpu.num_fp_insts                        253735                       # number of float instructions
system.cpu.num_fp_register_reads               239399                       # number of times the floating registers were read
system.cpu.num_fp_register_writes              213269                       # number of times the floating registers were written
system.cpu.num_func_calls                       13686                       # number of times a function call or return occured
system.cpu.num_idle_cycles                   0.002000                       # Number of idle cycles
system.cpu.num_int_alu_accesses                720164                       # Number of integer alu accesses
system.cpu.num_int_insts                       720164                       # number of integer instructions
system.cpu.num_int_register_reads             1479551                       # number of times the integer registers were read
system.cpu.num_int_register_writes             517683                       # number of times the integer registers were written
system.cpu.num_load_insts                      144767                       # Number of load instructions
system.cpu.num_mem_refs                        211967                       # number of memory refs
system.cpu.num_store_insts                      67200                       # Number of store instructions
system.cpu.num_vec_alu_accesses                     0                       # Number of vector alu accesses
system.cpu.num_vec_insts                            0                       # number of vector instructions
system.cpu.num_vec_register_reads                   0                       # number of times the vector registers were read
system.cpu.num_vec_register_writes                  0                       # number of times the vector registers were written
system.cpu.op_class::No_OpClass                 11335      1.29%      1.29% # Class of executed instruction
system.cpu.op_class::IntAlu                    504497     57.47%     58.76% # Class of executed instruction
system.cpu.op_class::IntMult                      123      0.01%     58.78% # Class of executed instruction
system.cpu.op_class::IntDiv                      2125      0.24%     59.02% # Class of executed instruction
system.cpu.op_class::FloatAdd                   69680      7.94%     66.96% # Class of executed instruction
system.cpu.op_class::FloatCmp                       0      0.00%     66.96% # Class of executed instruction
system.cpu.op_class::FloatCvt                      32      0.00%     66.96% # Class of executed instruction
system.cpu.op_class::FloatMult                      0      0.00%     66.96% # Class of executed instruction
system.cpu.op_class::FloatMultAcc                   0      0.00%     66.96% # Class of executed instruction
system.cpu.op_class::FloatDiv                       0      0.00%     66.96% # Class of executed instruction
system.cpu.op_class::FloatMisc                      0      0.00%     66.96% # Class of executed instruction
system.cpu.op_class::FloatSqrt                      0      0.00%     66.96% # Class of executed instruction
system.cpu.op_class::SimdAdd                      554      0.06%     67.02% # Class of executed instruction
system.cpu.op_class::SimdAddAcc                     0      0.00%     67.02% # Class of executed instruction
system.cpu.op_class::SimdAlu                     9039      1.03%     68.05% # Class of executed instruction
system.cpu.op_class::SimdCmp                        0      0.00%     68.05% # Class of executed instruction
system.cpu.op_class::SimdCvt                     1366      0.16%     68.21% # Class of executed instruction
system.cpu.op_class::SimdMisc                   11506      1.31%     69.52% # Class of executed instruction
system.cpu.op_class::SimdMult                       0      0.00%     69.52% # Class of executed instruction
system.cpu.op_class::SimdMultAcc                    0      0.00%     69.52% # Class of executed instruction
system.cpu.op_class::SimdShift                    174      0.02%     69.54% # Class of executed instruction
system.cpu.op_class::SimdShiftAcc                   0      0.00%     69.54% # Class of executed instruction
system.cpu.op_class::SimdDiv                        0      0.00%     69.54% # Class of executed instruction
system.cpu.op_class::SimdSqrt                       0      0.00%     69.54% # Class of executed instruction
system.cpu.op_class::SimdFloatAdd               15212      1.73%     71.27% # Class of executed instruction
system.cpu.op_class::SimdFloatAlu                   0      0.00%     71.27% # Class of executed instruction
system.cpu.op_class::SimdFloatCmp                   0      0.00%     71.27% # Class of executed instruction
system.cpu.op_class::SimdFloatCvt               15412      1.76%     73.03% # Class of executed instruction
system.cpu.op_class::SimdFloatDiv                1600      0.18%     73.21% # Class of executed instruction
system.cpu.op_class::SimdFloatMisc                  0      0.00%     73.21% # Class of executed instruction
system.cpu.op_class::SimdFloatMult              22800      2.60%     75.81% # Class of executed instruction
system.cpu.op_class::SimdFloatMultAcc               0      0.00%     75.81% # Class of executed instruction
system.cpu.op_class::SimdFloatSqrt                400      0.05%     75.85% # Class of executed instruction
system.cpu.op_class::SimdReduceAdd                  0      0.00%     75.85% # Class of executed instruction
system.cpu.op_class::SimdReduceAlu                  0      0.00%     75.85% # Class of executed instruction
system.cpu.op_class::SimdReduceCmp                  0      0.00%     75.85% # Class of executed instruction
system.cpu.op_class::SimdFloatReduceAdd             0      0.00%     75.85% # Class of executed instruction
system.cpu.op_class::SimdFloatReduceCmp             0      0.00%     75.85% # Class of executed instruction
system.cpu.op_class::SimdAes                        0      0.00%     75.85% # Class of executed instruction
system.cpu.op_class::SimdAesMix                     0      0.00%     75.85% # Class of executed instruction
system.cpu.op_class::SimdSha1Hash                   0      0.00%     75.85% # Class of executed instruction
system.cpu.op_class::SimdSha1Hash2                  0      0.00%     75.85% # Class of executed instruction
system.cpu.op_class::SimdSha256Hash                 0      0.00%     75.85% # Class of executed instruction
system.cpu.op_class::SimdSha256Hash2                0      0.00%     75.85% # Class of executed instruction
system.cpu.op_class::SimdShaSigma2                  0      0.00%     75.85% # Class of executed instruction
system.cpu.op_class::SimdShaSigma3                  0      0.00%     75.85% # Class of executed instruction
system.cpu.op_class::SimdPredAlu                    0      0.00%     75.85% # Class of executed instruction
system.cpu.op_class::MemRead                    82109      9.35%     85.21% # Class of executed instruction
system.cpu.op_class::MemWrite                   33563      3.82%     89.03% # Class of executed instruction
system.cpu.op_class::FloatMemRead               62658      7.14%     96.17% # Class of executed instruction
system.cpu.op_class::FloatMemWrite              33637      3.83%    100.00% # Class of executed instruction
system.cpu.op_class::IprAccess                      0      0.00%    100.00% # Class of executed instruction
system.cpu.op_class::InstPrefetch                   0      0.00%    100.00% # Class of executed instruction
system.cpu.op_class::total                     877822                       # Class of executed instruction
system.cpu.predictedBranches                    37007                       # Number of branches predicted as taken
system.cpu.workload.numSyscalls                    57                       # Number of system calls
system.membus.snoop_filter.hit_multi_requests            0                       # Number of requests hitting in the snoop filter with multiple (>1) holders of the requested data.
system.membus.snoop_filter.hit_multi_snoops            0                       # Number of snoops hitting in the snoop filter with multiple (>1) holders of the requested data.
system.membus.snoop_filter.hit_single_requests         1124                       # Number of requests hitting in the snoop filter with a single holder of the requested data.
system.membus.snoop_filter.hit_single_snoops            0                       # Number of snoops hitting in the snoop filter with a single holder of the requested data.
system.membus.snoop_filter.tot_requests          9057                       # Total number of requests made to the snoop filter.
system.membus.snoop_filter.tot_snoops               0                       # Total number of snoops made to the snoop filter.
system.tol2bus.snoop_filter.hit_multi_requests            0                       # Number of requests hitting in the snoop filter with multiple (>1) holders of the requested data.
system.tol2bus.snoop_filter.hit_multi_snoops            0                       # Number of snoops hitting in the snoop filter with multiple (>1) holders of the requested data.
system.tol2bus.snoop_filter.hit_single_requests         1894                       # Number of requests hitting in the snoop filter with a single holder of the requested data.
system.tol2bus.snoop_filter.hit_single_snoops         4533                       # Number of snoops hitting in the snoop filter with a single holder of the requested data.
system.tol2bus.snoop_filter.tot_requests        10014                       # Total number of requests made to the snoop filter.
system.tol2bus.snoop_filter.tot_snoops           4533                       # Total number of snoops made to the snoop filter.
system.clk_domain.clock                          1000                       # Clock period in ticks
system.cpu.branchPred.lookups                   72572                       # Number of BP lookups
system.cpu.branchPred.condPredicted             50081                       # Number of conditional branches predicted
system.cpu.branchPred.condIncorrect              6084                       # Number of conditional branches incorrect
system.cpu.branchPred.BTBLookups                29435                       # Number of BTB lookups
system.cpu.branchPred.BTBHits                   27895                       # Number of BTB hits
system.cpu.branchPred.BTBHitPct             94.768133                       # BTB Hit Percentage
system.cpu.branchPred.RASUsed                    6841                       # Number of times the RAS was used to get a target.
system.cpu.branchPred.RASIncorrect                  0                       # Number of incorrect RAS predictions.
system.cpu.branchPred.indirectLookups            2689                       # Number of indirect predictor lookups.
system.cpu.branchPred.indirectHits               2271                       # Number of indirect target hits.
system.cpu.branchPred.indirectMisses              418                       # Number of indirect misses.
system.cpu.branchPred.indirectMispredicted          481                       # Number of mispredicted indirect branches.
system.cpu.dcache.demand_hits::.cpu.data       214264                       # number of demand (read+write) hits
system.cpu.dcache.demand_hits::total           214264                       # number of demand (read+write) hits
system.cpu.dcache.overall_hits::.cpu.data       214264                       # number of overall hits
system.cpu.dcache.overall_hits::total          214264                       # number of overall hits
system.cpu.dcache.demand_misses::.cpu.data         5461                       # number of demand (read+write) misses
system.cpu.dcache.demand_misses::total           5461                       # number of demand (read+write) misses
system.cpu.dcache.overall_misses::.cpu.data         5461                       # number of overall misses
system.cpu.dcache.overall_misses::total          5461                       # number of overall misses
system.cpu.dcache.demand_miss_latency::.cpu.data    414647500                       # number of demand (read+write) miss cycles
system.cpu.dcache.demand_miss_latency::total    414647500                       # number of demand (read+write) miss cycles
system.cpu.dcache.overall_miss_latency::.cpu.data    414647500                       # number of overall miss cycles
system.cpu.dcache.overall_miss_latency::total    414647500                       # number of overall miss cycles
system.cpu.dcache.demand_accesses::.cpu.data       219725                       # number of demand (read+write) accesses
system.cpu.dcache.demand_accesses::total       219725                       # number of demand (read+write) accesses
system.cpu.dcache.overall_accesses::.cpu.data       219725                       # number of overall (read+write) accesses
system.cpu.dcache.overall_accesses::total       219725                       # number of overall (read+write) accesses
system.cpu.dcache.demand_miss_rate::.cpu.data     0.024854                       # miss rate for demand accesses
system.cpu.dcache.demand_miss_rate::total     0.024854                       # miss rate for demand accesses
system.cpu.dcache.overall_miss_rate::.cpu.data     0.024854                       # miss rate for overall accesses
system.cpu.dcache.overall_miss_rate::total     0.024854                       # miss rate for overall accesses
system.cpu.dcache.demand_avg_miss_latency::.cpu.data 75928.859183                       # average overall miss latency
system.cpu.dcache.demand_avg_miss_latency::total 75928.859183                       # average overall miss latency
system.cpu.dcache.overall_avg_miss_latency::.cpu.data 75928.859183                       # average overall miss latency
system.cpu.dcache.overall_avg_miss_latency::total 75928.859183                       # average overall miss latency
system.cpu.dcache.blocked_cycles::no_mshrs            0                       # number of cycles access was blocked
system.cpu.dcache.blocked_cycles::no_targets            0                       # number of cycles access was blocked
system.cpu.dcache.blocked::no_mshrs                 0                       # number of cycles access was blocked
system.cpu.dcache.blocked::no_targets               0                       # number of cycles access was blocked
system.cpu.dcache.avg_blocked_cycles::no_mshrs          nan                       # average number of cycles each access was blocked
system.cpu.dcache.avg_blocked_cycles::no_targets          nan                       # average number of cycles each access was blocked
system.cpu.dcache.writebacks::.writebacks          609                       # number of writebacks
system.cpu.dcache.writebacks::total               609                       # number of writebacks
system.cpu.dcache.demand_mshr_misses::.cpu.data         5461                       # number of demand (read+write) MSHR misses
system.cpu.dcache.demand_mshr_misses::total         5461                       # number of demand (read+write) MSHR misses
system.cpu.dcache.overall_mshr_misses::.cpu.data         5461                       # number of overall MSHR misses
system.cpu.dcache.overall_mshr_misses::total         5461                       # number of overall MSHR misses
system.cpu.dcache.demand_mshr_miss_latency::.cpu.data    409186500                       # number of demand (read+write) MSHR miss cycles
system.cpu.dcache.demand_mshr_miss_latency::total    409186500                       # number of demand (read+write) MSHR miss cycles
system.cpu.dcache.overall_mshr_miss_latency::.cpu.data    409186500                       # number of overall MSHR miss cycles
system.cpu.dcache.overall_mshr_miss_latency::total    409186500                       # number of overall MSHR miss cycles
system.cpu.dcache.demand_mshr_miss_rate::.cpu.data     0.024854                       # mshr miss rate for demand accesses
system.cpu.dcache.demand_mshr_miss_rate::total     0.024854                       # mshr miss rate for demand accesses
system.cpu.dcache.overall_mshr_miss_rate::.cpu.data     0.024854                       # mshr miss rate for overall accesses
system.cpu.dcache.overall_mshr_miss_rate::total     0.024854                       # mshr miss rate for overall accesses
system.cpu.dcache.demand_avg_mshr_miss_latency::.cpu.data 74928.859183                       # average overall mshr miss latency
system.cpu.dcache.demand_avg_mshr_miss_latency::total 74928.859183                       # average overall mshr miss latency
system.cpu.dcache.overall_avg_mshr_miss_latency::.cpu.data 74928.859183                       # average overall mshr miss latency
system.cpu.dcache.overall_avg_mshr_miss_latency::total 74928.859183                       # average overall mshr miss latency
system.cpu.dcache.replacements                   1578                       # number of replacements
system.cpu.dcache.ReadReq_hits::.cpu.data       148269                       # number of ReadReq hits
system.cpu.dcache.ReadReq_hits::total          148269                       # number of ReadReq hits
system.cpu.dcache.ReadReq_misses::.cpu.data         4273                       # number of ReadReq misses
system.cpu.dcache.ReadReq_misses::total          4273                       # number of ReadReq misses
system.cpu.dcache.ReadReq_miss_latency::.cpu.data    326993000                       # number of ReadReq miss cycles
system.cpu.dcache.ReadReq_miss_latency::total    326993000                       # number of ReadReq miss cycles
system.cpu.dcache.ReadReq_accesses::.cpu.data       152542                       # number of ReadReq accesses(hits+misses)
system.cpu.dcache.ReadReq_accesses::total       152542                       # number of ReadReq accesses(hits+misses)
system.cpu.dcache.ReadReq_miss_rate::.cpu.data     0.028012                       # miss rate for ReadReq accesses
system.cpu.dcache.ReadReq_miss_rate::total     0.028012                       # miss rate for ReadReq accesses
system.cpu.dcache.ReadReq_avg_miss_latency::.cpu.data 76525.391996                       # average ReadReq miss latency
system.cpu.dcache.ReadReq_avg_miss_latency::total 76525.391996                       # average ReadReq miss latency
system.cpu.dcache.ReadReq_mshr_misses::.cpu.data         4273                       # number of ReadReq MSHR misses
system.cpu.dcache.ReadReq_mshr_misses::total         4273                       # number of ReadReq MSHR misses
system.cpu.dcache.ReadReq_mshr_miss_latency::.cpu.data    322720000                       # number of ReadReq MSHR miss cycles
system.cpu.dcache.ReadReq_mshr_miss_latency::total    322720000                       # number of ReadReq MSHR miss cycles
system.cpu.dcache.ReadReq_mshr_miss_rate::.cpu.data     0.028012                       # mshr miss rate for ReadReq accesses
system.cpu.dcache.ReadReq_mshr_miss_rate::total     0.028012                       # mshr miss rate for ReadReq accesses
system.cpu.dcache.ReadReq_avg_mshr_miss_latency::.cpu.data 75525.391996                       # average ReadReq mshr miss latency
system.cpu.dcache.ReadReq_avg_mshr_miss_latency::total 75525.391996                       # average ReadReq mshr miss latency
system.cpu.dcache.WriteReq_hits::.cpu.data        65995                       # number of WriteReq hits
system.cpu.dcache.WriteReq_hits::total          65995                       # number of WriteReq hits
system.cpu.dcache.WriteReq_misses::.cpu.data         1188                       # number of WriteReq misses
system.cpu.dcache.WriteReq_misses::total         1188                       # number of WriteReq misses
system.cpu.dcache.WriteReq_miss_latency::.cpu.data     87654500                       # number of WriteReq miss cycles
system.cpu.dcache.WriteReq_miss_latency::total     87654500                       # number of WriteReq miss cycles
system.cpu.dcache.WriteReq_accesses::.cpu.data        67183                       # number of WriteReq accesses(hits+misses)
system.cpu.dcache.WriteReq_accesses::total        67183                       # number of WriteReq accesses(hits+misses)
system.cpu.dcache.WriteReq_miss_rate::.cpu.data     0.017683                       # miss rate for WriteReq accesses
system.cpu.dcache.WriteReq_miss_rate::total     0.017683                       # miss rate for WriteReq accesses
system.cpu.dcache.WriteReq_avg_miss_latency::.cpu.data 73783.249158                       # average WriteReq miss latency
system.cpu.dcache.WriteReq_avg_miss_latency::total 73783.249158                       # average WriteReq miss latency
system.cpu.dcache.WriteReq_mshr_misses::.cpu.data         1188                       # number of WriteReq MSHR misses
system.cpu.dcache.WriteReq_mshr_misses::total         1188                       # number of WriteReq MSHR misses
system.cpu.dcache.WriteReq_mshr_miss_latency::.cpu.data     86466500                       # number of WriteReq MSHR miss cycles
system.cpu.dcache.WriteReq_mshr_miss_latency::total     86466500                       # number of WriteReq MSHR miss cycles
system.cpu.dcache.WriteReq_mshr_miss_rate::.cpu.data     0.017683                       # mshr miss rate for WriteReq accesses
system.cpu.dcache.WriteReq_mshr_miss_rate::total     0.017683                       # mshr miss rate for WriteReq accesses
system.cpu.dcache.WriteReq_avg_mshr_miss_latency::.cpu.data 72783.249158                       # average WriteReq mshr miss latency
system.cpu.dcache.WriteReq_avg_mshr_miss_latency::total 72783.249158                       # average WriteReq mshr miss latency
system.cpu.dcache.power_state.pwrStateResidencyTicks::UNDEFINED   1470935500                       # Cumulative time (in ticks) in various power states
system.cpu.dcache.tags.tagsinuse          2959.501454                       # Cycle average of tags in use
system.cpu.dcache.tags.total_refs              219725                       # Total number of references to valid blocks.
system.cpu.dcache.tags.sampled_refs              5461                       # Sample count of references to valid blocks.
system.cpu.dcache.tags.avg_refs             40.235305                       # Average number of references to valid blocks.
system.cpu.dcache.tags.warmup_cycle            174500                       # Cycle when the warmup percentage was hit.
system.cpu.dcache.tags.occ_blocks::.cpu.data  2959.501454                       # Average occupied blocks per requestor
system.cpu.dcache.tags.occ_percent::.cpu.data     0.722535                       # Average percentage of cache occupancy
system.cpu.dcache.tags.occ_percent::total     0.722535                       # Average percentage of cache occupancy
system.cpu.dcache.tags.occ_task_id_blocks::1024         3883                       # Occupied blocks per task id
system.cpu.dcache.tags.age_task_id_blocks_1024::0           30                       # Occupied blocks per task id
system.cpu.dcache.tags.age_task_id_blocks_1024::1           21                       # Occupied blocks per task id
system.cpu.dcache.tags.age_task_id_blocks_1024::2         2217                       # Occupied blocks per task id
system.cpu.dcache.tags.age_task_id_blocks_1024::3         1615                       # Occupied blocks per task id
system.cpu.dcache.tags.occ_task_id_percent::1024     0.947998                       # Percentage of cache occupancy per task id
system.cpu.dcache.tags.tag_accesses            444911                       # Number of tag accesses
system.cpu.dcache.tags.data_accesses           444911                       # Number of data accesses
system.cpu.dcache.tags.power_state.pwrStateResidencyTicks::UNDEFINED   1470935500                       # Cumulative time (in ticks) in various power states
system.cpu.dtb.rdAccesses                      152616                       # TLB accesses on read requests
system.cpu.dtb.wrAccesses                       67200                       # TLB accesses on write requests
system.cpu.dtb.rdMisses                           236                       # TLB misses on read requests
system.cpu.dtb.wrMisses                            43                       # TLB misses on write requests
system.cpu.dtb.walker.power_state.pwrStateResidencyTicks::UNDEFINED   1470935500                       # Cumulative time (in ticks) in various power states
system.cpu.dtb_walker_cache.blocked_cycles::no_mshrs            0                       # number of cycles access was blocked
system.cpu.dtb_walker_cache.blocked_cycles::no_targets            0                       # number of cycles access was blocked
system.cpu.dtb_walker_cache.blocked::no_mshrs            0                       # number of cycles access was blocked
system.cpu.dtb_walker_cache.blocked::no_targets            0                       # number of cycles access was blocked
system.cpu.dtb_walker_cache.avg_blocked_cycles::no_mshrs          nan                       # average number of cycles each access was blocked
system.cpu.dtb_walker_cache.avg_blocked_cycles::no_targets          nan                       # average number of cycles each access was blocked
system.cpu.dtb_walker_cache.replacements            0                       # number of replacements
system.cpu.dtb_walker_cache.power_state.pwrStateResidencyTicks::UNDEFINED   1470935500                       # Cumulative time (in ticks) in various power states
system.cpu.dtb_walker_cache.tags.tagsinuse            0                       # Cycle average of tags in use
system.cpu.dtb_walker_cache.tags.total_refs            0                       # Total number of references to valid blocks.
system.cpu.dtb_walker_cache.tags.sampled_refs            0                       # Sample count of references to valid blocks.
system.cpu.dtb_walker_cache.tags.avg_refs          nan                       # Average number of references to valid blocks.
system.cpu.dtb_walker_cache.tags.warmup_cycle            0                       # Cycle when the warmup percentage was hit.
system.cpu.dtb_walker_cache.tags.tag_accesses            0                       # Number of tag accesses
system.cpu.dtb_walker_cache.tags.data_accesses            0                       # Number of data accesses
system.cpu.dtb_walker_cache.tags.power_state.pwrStateResidencyTicks::UNDEFINED   1470935500                       # Cumulative time (in ticks) in various power states
system.cpu.icache.demand_hits::.cpu.inst       640210                       # number of demand (read+write) hits
system.cpu.icache.demand_hits::total           640210                       # number of demand (read+write) hits
system.cpu.icache.overall_hits::.cpu.inst       640210                       # number of overall hits
system.cpu.icache.overall_hits::total          640210                       # number of overall hits
system.cpu.icache.demand_misses::.cpu.inst         2659                       # number of demand (read+write) misses
system.cpu.icache.demand_misses::total           2659                       # number of demand (read+write) misses
system.cpu.icache.overall_misses::.cpu.inst         2659                       # number of overall misses
system.cpu.icache.overall_misses::total          2659                       # number of overall misses
system.cpu.icache.demand_miss_latency::.cpu.inst    205916500                       # number of demand (read+write) miss cycles
system.cpu.icache.demand_miss_latency::total    205916500                       # number of demand (read+write) miss cycles
system.cpu.icache.overall_miss_latency::.cpu.inst    205916500                       # number of overall miss cycles
system.cpu.icache.overall_miss_latency::total    205916500                       # number of overall miss cycles
system.cpu.icache.demand_accesses::.cpu.inst       642869                       # number of demand (read+write) accesses
system.cpu.icache.demand_accesses::total       642869                       # number of demand (read+write) accesses
system.cpu.icache.overall_accesses::.cpu.inst       642869                       # number of overall (read+write) accesses
system.cpu.icache.overall_accesses::total       642869                       # number of overall (read+write) accesses
system.cpu.icache.demand_miss_rate::.cpu.inst     0.004136                       # miss rate for demand accesses
system.cpu.icache.demand_miss_rate::total     0.004136                       # miss rate for demand accesses
system.cpu.icache.overall_miss_rate::.cpu.inst     0.004136                       # miss rate for overall accesses
system.cpu.icache.overall_miss_rate::total     0.004136                       # miss rate for overall accesses
system.cpu.icache.demand_avg_miss_latency::.cpu.inst 77441.331328                       # average overall miss latency
system.cpu.icache.demand_avg_miss_latency::total 77441.331328                       # average overall miss latency
system.cpu.icache.overall_avg_miss_latency::.cpu.inst 77441.331328                       # average overall miss latency
system.cpu.icache.overall_avg_miss_latency::total 77441.331328                       # average overall miss latency
system.cpu.icache.blocked_cycles::no_mshrs            0                       # number of cycles access was blocked
system.cpu.icache.blocked_cycles::no_targets            0                       # number of cycles access was blocked
system.cpu.icache.blocked::no_mshrs                 0                       # number of cycles access was blocked
system.cpu.icache.blocked::no_targets               0                       # number of cycles access was blocked
system.cpu.icache.avg_blocked_cycles::no_mshrs          nan                       # average number of cycles each access was blocked
system.cpu.icache.avg_blocked_cycles::no_targets          nan                       # average number of cycles each access was blocked
system.cpu.icache.writebacks::.writebacks          316                       # number of writebacks
system.cpu.icache.writebacks::total               316                       # number of writebacks
system.cpu.icache.demand_mshr_misses::.cpu.inst         2659                       # number of demand (read+write) MSHR misses
system.cpu.icache.demand_mshr_misses::total         2659                       # number of demand (read+write) MSHR misses
system.cpu.icache.overall_mshr_misses::.cpu.inst         2659                       # number of overall MSHR misses
system.cpu.icache.overall_mshr_misses::total         2659                       # number of overall MSHR misses
system.cpu.icache.demand_mshr_miss_latency::.cpu.inst    203257500                       # number of demand (read+write) MSHR miss cycles
system.cpu.icache.demand_mshr_miss_latency::total    203257500                       # number of demand (read+write) MSHR miss cycles
system.cpu.icache.overall_mshr_miss_latency::.cpu.inst    203257500                       # number of overall MSHR miss cycles
system.cpu.icache.overall_mshr_miss_latency::total    203257500                       # number of overall MSHR miss cycles
system.cpu.icache.demand_mshr_miss_rate::.cpu.inst     0.004136                       # mshr miss rate for demand accesses
system.cpu.icache.demand_mshr_miss_rate::total     0.004136                       # mshr miss rate for demand accesses
system.cpu.icache.overall_mshr_miss_rate::.cpu.inst     0.004136                       # mshr miss rate for overall accesses
system.cpu.icache.overall_mshr_miss_rate::total     0.004136                       # mshr miss rate for overall accesses
system.cpu.icache.demand_avg_mshr_miss_latency::.cpu.inst 76441.331328                       # average overall mshr miss latency
system.cpu.icache.demand_avg_mshr_miss_latency::total 76441.331328                       # average overall mshr miss latency
system.cpu.icache.overall_avg_mshr_miss_latency::.cpu.inst 76441.331328                       # average overall mshr miss latency
system.cpu.icache.overall_avg_mshr_miss_latency::total 76441.331328                       # average overall mshr miss latency
system.cpu.icache.replacements                    316                       # number of replacements
system.cpu.icache.ReadReq_hits::.cpu.inst       640210                       # number of ReadReq hits
system.cpu.icache.ReadReq_hits::total          640210                       # number of ReadReq hits
system.cpu.icache.ReadReq_misses::.cpu.inst         2659                       # number of ReadReq misses
system.cpu.icache.ReadReq_misses::total          2659                       # number of ReadReq misses
system.cpu.icache.ReadReq_miss_latency::.cpu.inst    205916500                       # number of ReadReq miss cycles
system.cpu.icache.ReadReq_miss_latency::total    205916500                       # number of ReadReq miss cycles
system.cpu.icache.ReadReq_accesses::.cpu.inst       642869                       # number of ReadReq accesses(hits+misses)
system.cpu.icache.ReadReq_accesses::total       642869                       # number of ReadReq accesses(hits+misses)
system.cpu.icache.ReadReq_miss_rate::.cpu.inst     0.004136                       # miss rate for ReadReq accesses
system.cpu.icache.ReadReq_miss_rate::total     0.004136                       # miss rate for ReadReq accesses
system.cpu.icache.ReadReq_avg_miss_latency::.cpu.inst 77441.331328                       # average ReadReq miss latency
system.cpu.icache.ReadReq_avg_miss_latency::total 77441.331328                       # average ReadReq miss latency
system.cpu.icache.ReadReq_mshr_misses::.cpu.inst         2659                       # number of ReadReq MSHR misses
system.cpu.icache.ReadReq_mshr_misses::total         2659                       # number of ReadReq MSHR misses
system.cpu.icache.ReadReq_mshr_miss_latency::.cpu.inst    203257500                       # number of ReadReq MSHR miss cycles
system.cpu.icache.ReadReq_mshr_miss_latency::total    203257500                       # number of ReadReq MSHR miss cycles
system.cpu.icache.ReadReq_mshr_miss_rate::.cpu.inst     0.004136                       # mshr miss rate for ReadReq accesses
system.cpu.icache.ReadReq_mshr_miss_rate::total     0.004136                       # mshr miss rate for ReadReq accesses
system.cpu.icache.ReadReq_avg_mshr_miss_latency::.cpu.inst 76441.331328                       # average ReadReq mshr miss latency
system.cpu.icache.ReadReq_avg_mshr_miss_latency::total 76441.331328                       # average ReadReq mshr miss latency
system.cpu.icache.power_state.pwrStateResidencyTicks::UNDEFINED   1470935500                       # Cumulative time (in ticks) in various power states
system.cpu.icache.tags.tagsinuse          1505.183893                       # Cycle average of tags in use
system.cpu.icache.tags.total_refs              642869                       # Total number of references to valid blocks.
system.cpu.icache.tags.sampled_refs              2659                       # Sample count of references to valid blocks.
system.cpu.icache.tags.avg_refs            241.770967                       # Average number of references to valid blocks.
system.cpu.icache.tags.warmup_cycle             87500                       # Cycle when the warmup percentage was hit.
system.cpu.icache.tags.occ_blocks::.cpu.inst  1505.183893                       # Average occupied blocks per requestor
system.cpu.icache.tags.occ_percent::.cpu.inst     0.367477                       # Average percentage of cache occupancy
system.cpu.icache.tags.occ_percent::total     0.367477                       # Average percentage of cache occupancy
system.cpu.icache.tags.occ_task_id_blocks::1024         2343                       # Occupied blocks per task id
system.cpu.icache.tags.age_task_id_blocks_1024::0           90                       # Occupied blocks per task id
system.cpu.icache.tags.age_task_id_blocks_1024::1          235                       # Occupied blocks per task id
system.cpu.icache.tags.age_task_id_blocks_1024::2         1093                       # Occupied blocks per task id
system.cpu.icache.tags.age_task_id_blocks_1024::3          925                       # Occupied blocks per task id
system.cpu.icache.tags.occ_task_id_percent::1024     0.572021                       # Percentage of cache occupancy per task id
system.cpu.icache.tags.tag_accesses           1288397                       # Number of tag accesses
system.cpu.icache.tags.data_accesses          1288397                       # Number of data accesses
system.cpu.icache.tags.power_state.pwrStateResidencyTicks::UNDEFINED   1470935500                       # Cumulative time (in ticks) in various power states
system.cpu.interrupts.clk_domain.clock           8000                       # Clock period in ticks
system.cpu.itb.rdAccesses                           0                       # TLB accesses on read requests
system.cpu.itb.wrAccesses                      642947                       # TLB accesses on write requests
system.cpu.itb.rdMisses                             0                       # TLB misses on read requests
system.cpu.itb.wrMisses                           262                       # TLB misses on write requests
system.cpu.itb.walker.power_state.pwrStateResidencyTicks::UNDEFINED   1470935500                       # Cumulative time (in ticks) in various power states
system.cpu.itb_walker_cache.blocked_cycles::no_mshrs            0                       # number of cycles access was blocked
system.cpu.itb_walker_cache.blocked_cycles::no_targets            0                       # number of cycles access was blocked
system.cpu.itb_walker_cache.blocked::no_mshrs            0                       # number of cycles access was blocked
system.cpu.itb_walker_cache.blocked::no_targets            0                       # number of cycles access was blocked
system.cpu.itb_walker_cache.avg_blocked_cycles::no_mshrs          nan                       # average number of cycles each access was blocked
system.cpu.itb_walker_cache.avg_blocked_cycles::no_targets          nan                       # average number of cycles each access was blocked
system.cpu.itb_walker_cache.replacements            0                       # number of replacements
system.cpu.itb_walker_cache.power_state.pwrStateResidencyTicks::UNDEFINED   1470935500                       # Cumulative time (in ticks) in various power states
system.cpu.itb_walker_cache.tags.tagsinuse            0                       # Cycle average of tags in use
system.cpu.itb_walker_cache.tags.total_refs            0                       # Total number of references to valid blocks.
system.cpu.itb_walker_cache.tags.sampled_refs            0                       # Sample count of references to valid blocks.
system.cpu.itb_walker_cache.tags.avg_refs          nan                       # Average number of references to valid blocks.
system.cpu.itb_walker_cache.tags.warmup_cycle            0                       # Cycle when the warmup percentage was hit.
system.cpu.itb_walker_cache.tags.tag_accesses            0                       # Number of tag accesses
system.cpu.itb_walker_cache.tags.data_accesses            0                       # Number of data accesses
system.cpu.itb_walker_cache.tags.power_state.pwrStateResidencyTicks::UNDEFINED   1470935500                       # Cumulative time (in ticks) in various power states
system.cpu.power_state.pwrStateResidencyTicks::ON   1470935500                       # Cumulative time (in ticks) in various power states
system.cpu.thread_0.numInsts                        0                       # Number of Instructions committed
system.cpu.thread_0.numOps                          0                       # Number of Ops committed
system.cpu.thread_0.numMemRefs                      0                       # Number of Memory References
system.cpu_clk_domain.clock                       500                       # Clock period in ticks
system.cpu_voltage_domain.voltage                   1                       # Voltage in Volts
system.l2.demand_hits::.cpu.inst                   12                       # number of demand (read+write) hits
system.l2.demand_hits::.cpu.data                  175                       # number of demand (read+write) hits
system.l2.demand_hits::total                      187                       # number of demand (read+write) hits
system.l2.overall_hits::.cpu.inst                  12                       # number of overall hits
system.l2.overall_hits::.cpu.data                 175                       # number of overall hits
system.l2.overall_hits::total                     187                       # number of overall hits
system.l2.demand_misses::.cpu.inst               2647                       # number of demand (read+write) misses
system.l2.demand_misses::.cpu.data               5286                       # number of demand (read+write) misses
system.l2.demand_misses::total                   7933                       # number of demand (read+write) misses
system.l2.overall_misses::.cpu.inst              2647                       # number of overall misses
system.l2.overall_misses::.cpu.data              5286                       # number of overall misses
system.l2.overall_misses::total                  7933                       # number of overall misses
system.l2.demand_miss_latency::.cpu.inst    199143000                       # number of demand (read+write) miss cycles
system.l2.demand_miss_latency::.cpu.data    399156500                       # number of demand (read+write) miss cycles
system.l2.demand_miss_latency::total        598299500                       # number of demand (read+write) miss cycles
system.l2.overall_miss_latency::.cpu.inst    199143000                       # number of overall miss cycles
system.l2.overall_miss_latency::.cpu.data    399156500                       # number of overall miss cycles
system.l2.overall_miss_latency::total       598299500                       # number of overall miss cycles
system.l2.demand_accesses::.cpu.inst             2659                       # number of demand (read+write) accesses
system.l2.demand_accesses::.cpu.data             5461                       # number of demand (read+write) accesses
system.l2.demand_accesses::total                 8120                       # number of demand (read+write) accesses
system.l2.overall_accesses::.cpu.inst            2659                       # number of overall (read+write) accesses
system.l2.overall_accesses::.cpu.data            5461                       # number of overall (read+write) accesses
system.l2.overall_accesses::total                8120                       # number of overall (read+write) accesses
system.l2.demand_miss_rate::.cpu.inst        0.995487                       # miss rate for demand accesses
system.l2.demand_miss_rate::.cpu.data        0.967955                       # miss rate for demand accesses
system.l2.demand_miss_rate::total            0.976970                       # miss rate for demand accesses
system.l2.overall_miss_rate::.cpu.inst       0.995487                       # miss rate for overall accesses
system.l2.overall_miss_rate::.cpu.data       0.967955                       # miss rate for overall accesses
system.l2.overall_miss_rate::total           0.976970                       # miss rate for overall accesses
system.l2.demand_avg_miss_latency::.cpu.inst 75233.471855                       # average overall miss latency
system.l2.demand_avg_miss_latency::.cpu.data 75512.012864                       # average overall miss latency
system.l2.demand_avg_miss_latency::total 75419.072230                       # average overall miss latency
system.l2.overall_avg_miss_latency::.cpu.inst 75233.471855                       # average overall miss latency
system.l2.overall_avg_miss_latency::.cpu.data 75512.012864                       # average overall miss latency
system.l2.overall_avg_miss_latency::total 75419.072230                       # average overall miss latency
system.l2.blocked_cycles::no_mshrs                  0                       # number of cycles access was blocked
system.l2.blocked_cycles::no_targets                0                       # number of cycles access was blocked
system.l2.blocked::no_mshrs                         0                       # number of cycles access was blocked
system.l2.blocked::no_targets                       0                       # number of cycles access was blocked
system.l2.avg_blocked_cycles::no_mshrs            nan                       # average number of cycles each access was blocked
system.l2.avg_blocked_cycles::no_targets          nan                       # average number of cycles each access was blocked
system.l2.writebacks::.writebacks                 122                       # number of writebacks
system.l2.writebacks::total                       122                       # number of writebacks
system.l2.demand_mshr_misses::.cpu.inst          2647                       # number of demand (read+write) MSHR misses
system.l2.demand_mshr_misses::.cpu.data          5286                       # number of demand (read+write) MSHR misses
system.l2.demand_mshr_misses::total              7933                       # number of demand (read+write) MSHR misses
system.l2.overall_mshr_misses::.cpu.inst         2647                       # number of overall MSHR misses
system.l2.overall_mshr_misses::.cpu.data         5286                       # number of overall MSHR misses
system.l2.overall_mshr_misses::total             7933                       # number of overall MSHR misses
system.l2.demand_mshr_miss_latency::.cpu.inst    172673000                       # number of demand (read+write) MSHR miss cycles
system.l2.demand_mshr_miss_latency::.cpu.data    346296500                       # number of demand (read+write) MSHR miss cycles
system.l2.demand_mshr_miss_latency::total    518969500                       # number of demand (read+write) MSHR miss cycles
system.l2.overall_mshr_miss_latency::.cpu.inst    172673000                       # number of overall MSHR miss cycles
system.l2.overall_mshr_miss_latency::.cpu.data    346296500                       # number of overall MSHR miss cycles
system.l2.overall_mshr_miss_latency::total    518969500                       # number of overall MSHR miss cycles
system.l2.demand_mshr_miss_rate::.cpu.inst     0.995487                       # mshr miss rate for demand accesses
system.l2.demand_mshr_miss_rate::.cpu.data     0.967955                       # mshr miss rate for demand accesses
system.l2.demand_mshr_miss_rate::total       0.976970                       # mshr miss rate for demand accesses
system.l2.overall_mshr_miss_rate::.cpu.inst     0.995487                       # mshr miss rate for overall accesses
system.l2.overall_mshr_miss_rate::.cpu.data     0.967955                       # mshr miss rate for overall accesses
system.l2.overall_mshr_miss_rate::total      0.976970                       # mshr miss rate for overall accesses
system.l2.demand_avg_mshr_miss_latency::.cpu.inst 65233.471855                       # average overall mshr miss latency
system.l2.demand_avg_mshr_miss_latency::.cpu.data 65512.012864                       # average overall mshr miss latency
system.l2.demand_avg_mshr_miss_latency::total 65419.072230                       # average overall mshr miss latency
system.l2.overall_avg_mshr_miss_latency::.cpu.inst 65233.471855                       # average overall mshr miss latency
system.l2.overall_avg_mshr_miss_latency::.cpu.data 65512.012864                       # average overall mshr miss latency
system.l2.overall_avg_mshr_miss_latency::total 65419.072230                       # average overall mshr miss latency
system.l2.replacements                           4777                       # number of replacements
system.l2.WritebackDirty_hits::.writebacks          609                       # number of WritebackDirty hits
system.l2.WritebackDirty_hits::total              609                       # number of WritebackDirty hits
system.l2.WritebackDirty_accesses::.writebacks          609                       # number of WritebackDirty accesses(hits+misses)
system.l2.WritebackDirty_accesses::total          609                       # number of WritebackDirty accesses(hits+misses)
system.l2.WritebackClean_hits::.writebacks          316                       # number of WritebackClean hits
system.l2.WritebackClean_hits::total              316                       # number of WritebackClean hits
system.l2.WritebackClean_accesses::.writebacks          316                       # number of WritebackClean accesses(hits+misses)
system.l2.WritebackClean_accesses::total          316                       # number of WritebackClean accesses(hits+misses)
system.l2.CleanEvict_mshr_misses::.writebacks          880                       # number of CleanEvict MSHR misses
system.l2.CleanEvict_mshr_misses::total           880                       # number of CleanEvict MSHR misses
system.l2.CleanEvict_mshr_miss_rate::.writebacks          inf                       # mshr miss rate for CleanEvict accesses
system.l2.CleanEvict_mshr_miss_rate::total          inf                       # mshr miss rate for CleanEvict accesses
system.l2.ReadExReq_hits::.cpu.data                63                       # number of ReadExReq hits
system.l2.ReadExReq_hits::total                    63                       # number of ReadExReq hits
system.l2.ReadExReq_misses::.cpu.data            1125                       # number of ReadExReq misses
system.l2.ReadExReq_misses::total                1125                       # number of ReadExReq misses
system.l2.ReadExReq_miss_latency::.cpu.data     84023000                       # number of ReadExReq miss cycles
system.l2.ReadExReq_miss_latency::total      84023000                       # number of ReadExReq miss cycles
system.l2.ReadExReq_accesses::.cpu.data          1188                       # number of ReadExReq accesses(hits+misses)
system.l2.ReadExReq_accesses::total              1188                       # number of ReadExReq accesses(hits+misses)
system.l2.ReadExReq_miss_rate::.cpu.data     0.946970                       # miss rate for ReadExReq accesses
system.l2.ReadExReq_miss_rate::total         0.946970                       # miss rate for ReadExReq accesses
system.l2.ReadExReq_avg_miss_latency::.cpu.data 74687.111111                       # average ReadExReq miss latency
system.l2.ReadExReq_avg_miss_latency::total 74687.111111                       # average ReadExReq miss latency
system.l2.ReadExReq_mshr_misses::.cpu.data         1125                       # number of ReadExReq MSHR misses
system.l2.ReadExReq_mshr_misses::total           1125                       # number of ReadExReq MSHR misses
system.l2.ReadExReq_mshr_miss_latency::.cpu.data     72773000                       # number of ReadExReq MSHR miss cycles
system.l2.ReadExReq_mshr_miss_latency::total     72773000                       # number of ReadExReq MSHR miss cycles
system.l2.ReadExReq_mshr_miss_rate::.cpu.data     0.946970                       # mshr miss rate for ReadExReq accesses
system.l2.ReadExReq_mshr_miss_rate::total     0.946970                       # mshr miss rate for ReadExReq accesses
system.l2.ReadExReq_avg_mshr_miss_latency::.cpu.data 64687.111111                       # average ReadExReq mshr miss latency
system.l2.ReadExReq_avg_mshr_miss_latency::total 64687.111111                       # average ReadExReq mshr miss latency
system.l2.ReadCleanReq_hits::.cpu.inst             12                       # number of ReadCleanReq hits
system.l2.ReadCleanReq_hits::total                 12                       # number of ReadCleanReq hits
system.l2.ReadCleanReq_misses::.cpu.inst         2647                       # number of ReadCleanReq misses
system.l2.ReadCleanReq_misses::total             2647                       # number of ReadCleanReq misses
system.l2.ReadCleanReq_miss_latency::.cpu.inst    199143000                       # number of ReadCleanReq miss cycles
system.l2.ReadCleanReq_miss_latency::total    199143000                       # number of ReadCleanReq miss cycles
system.l2.ReadCleanReq_accesses::.cpu.inst         2659                       # number of ReadCleanReq accesses(hits+misses)
system.l2.ReadCleanReq_accesses::total           2659                       # number of ReadCleanReq accesses(hits+misses)
system.l2.ReadCleanReq_miss_rate::.cpu.inst     0.995487                       # miss rate for ReadCleanReq accesses
system.l2.ReadCleanReq_miss_rate::total      0.995487                       # miss rate for ReadCleanReq accesses
system.l2.ReadCleanReq_avg_miss_latency::.cpu.inst 75233.471855                       # average ReadCleanReq miss latency
system.l2.ReadCleanReq_avg_miss_latency::total 75233.471855                       # average ReadCleanReq miss latency
system.l2.ReadCleanReq_mshr_misses::.cpu.inst         2647                       # number of ReadCleanReq MSHR misses
system.l2.ReadCleanReq_mshr_misses::total         2647                       # number of ReadCleanReq MSHR misses
system.l2.ReadCleanReq_mshr_miss_latency::.cpu.inst    172673000                       # number of ReadCleanReq MSHR miss cycles
system.l2.ReadCleanReq_mshr_miss_latency::total    172673000                       # number of ReadCleanReq MSHR miss cycles
system.l2.ReadCleanReq_mshr_miss_rate::.cpu.inst     0.995487                       # mshr miss rate for ReadCleanReq accesses
system.l2.ReadCleanReq_mshr_miss_rate::total     0.995487                       # mshr miss rate for ReadCleanReq accesses
system.l2.ReadCleanReq_avg_mshr_miss_latency::.cpu.inst 65233.471855                       # average ReadCleanReq mshr miss latency
system.l2.ReadCleanReq_avg_mshr_miss_latency::total 65233.471855                       # average ReadCleanReq mshr miss latency
system.l2.ReadSharedReq_hits::.cpu.data           112                       # number of ReadSharedReq hits
system.l2.ReadSharedReq_hits::total               112                       # number of ReadSharedReq hits
system.l2.ReadSharedReq_misses::.cpu.data         4161                       # number of ReadSharedReq misses
system.l2.ReadSharedReq_misses::total            4161                       # number of ReadSharedReq misses
system.l2.ReadSharedReq_miss_latency::.cpu.data    315133500                       # number of ReadSharedReq miss cycles
system.l2.ReadSharedReq_miss_latency::total    315133500                       # number of ReadSharedReq miss cycles
system.l2.ReadSharedReq_accesses::.cpu.data         4273                       # number of ReadSharedReq accesses(hits+misses)
system.l2.ReadSharedReq_accesses::total          4273                       # number of ReadSharedReq accesses(hits+misses)
system.l2.ReadSharedReq_miss_rate::.cpu.data     0.973789                       # miss rate for ReadSharedReq accesses
system.l2.ReadSharedReq_miss_rate::total     0.973789                       # miss rate for ReadSharedReq accesses
system.l2.ReadSharedReq_avg_miss_latency::.cpu.data 75735.039654                       # average ReadSharedReq miss latency
system.l2.ReadSharedReq_avg_miss_latency::total 75735.039654                       # average ReadSharedReq miss latency
system.l2.ReadSharedReq_mshr_misses::.cpu.data         4161                       # number of ReadSharedReq MSHR misses
system.l2.ReadSharedReq_mshr_misses::total         4161                       # number of ReadSharedReq MSHR misses
system.l2.ReadSharedReq_mshr_miss_latency::.cpu.data    273523500                       # number of ReadSharedReq MSHR miss cycles
system.l2.ReadSharedReq_mshr_miss_latency::total    273523500                       # number of ReadSharedReq MSHR miss cycles
system.l2.ReadSharedReq_mshr_miss_rate::.cpu.data     0.973789                       # mshr miss rate for ReadSharedReq accesses
system.l2.ReadSharedReq_mshr_miss_rate::total     0.973789                       # mshr miss rate for ReadSharedReq accesses
system.l2.ReadSharedReq_avg_mshr_miss_latency::.cpu.data 65735.039654                       # average ReadSharedReq mshr miss latency
system.l2.ReadSharedReq_avg_mshr_miss_latency::total 65735.039654                       # average ReadSharedReq mshr miss latency
system.l2.power_state.pwrStateResidencyTicks::UNDEFINED   1470935500                       # Cumulative time (in ticks) in various power states
system.l2.tags.tagsinuse                  3292.649044                       # Cycle average of tags in use
system.l2.tags.total_refs                        9134                       # Total number of references to valid blocks.
system.l2.tags.sampled_refs                      8814                       # Sample count of references to valid blocks.
system.l2.tags.avg_refs                      1.036306                       # Average number of references to valid blocks.
system.l2.tags.warmup_cycle                     77000                       # Cycle when the warmup percentage was hit.
system.l2.tags.occ_blocks::.writebacks     320.071487                       # Average occupied blocks per requestor
system.l2.tags.occ_blocks::.cpu.inst       809.779402                       # Average occupied blocks per requestor
system.l2.tags.occ_blocks::.cpu.data      2162.798156                       # Average occupied blocks per requestor
system.l2.tags.occ_percent::.writebacks      0.078142                       # Average percentage of cache occupancy
system.l2.tags.occ_percent::.cpu.inst        0.197700                       # Average percentage of cache occupancy
system.l2.tags.occ_percent::.cpu.data        0.528027                       # Average percentage of cache occupancy
system.l2.tags.occ_percent::total            0.803869                       # Average percentage of cache occupancy
system.l2.tags.occ_task_id_blocks::1024          4037                       # Occupied blocks per task id
system.l2.tags.age_task_id_blocks_1024::0          118                       # Occupied blocks per task id
system.l2.tags.age_task_id_blocks_1024::1          338                       # Occupied blocks per task id
system.l2.tags.age_task_id_blocks_1024::2         2747                       # Occupied blocks per task id
system.l2.tags.age_task_id_blocks_1024::3          834                       # Occupied blocks per task id
system.l2.tags.occ_task_id_percent::1024     0.985596                       # Percentage of cache occupancy per task id
system.l2.tags.tag_accesses                     28842                       # Number of tag accesses
system.l2.tags.data_accesses                    28842                       # Number of data accesses
system.l2.tags.power_state.pwrStateResidencyTicks::UNDEFINED   1470935500                       # Cumulative time (in ticks) in various power states
system.mem_ctrls.avgPriority_.writebacks::samples       105.00                       # Average QoS priority value for accepted requests
system.mem_ctrls.avgPriority_.cpu.inst::samples      2647.00                       # Average QoS priority value for accepted requests
system.mem_ctrls.avgPriority_.cpu.data::samples      5281.00                       # Average QoS priority value for accepted requests
system.mem_ctrls.priorityMinLatency      0.000000018750                       # per QoS priority minimum request to response latency (s)
system.mem_ctrls.priorityMaxLatency      0.001197476750                       # per QoS priority maximum request to response latency (s)
system.mem_ctrls.numReadWriteTurnArounds            5                       # Number of turnarounds from READ to WRITE
system.mem_ctrls.numWriteReadTurnArounds            5                       # Number of turnarounds from WRITE to READ
system.mem_ctrls.numStayReadState               16350                       # Number of times bus staying in READ state
system.mem_ctrls.numStayWriteState                 77                       # Number of times bus staying in WRITE state
system.mem_ctrls.readReqs                        7933                       # Number of read requests accepted
system.mem_ctrls.writeReqs                        122                       # Number of write requests accepted
system.mem_ctrls.readBursts                      7933                       # Number of controller read bursts, including those serviced by the write queue
system.mem_ctrls.writeBursts                      122                       # Number of controller write bursts, including those merged in the write queue
system.mem_ctrls.servicedByWrQ                      5                       # Number of controller read bursts serviced by the write queue
system.mem_ctrls.mergedWrBursts                    17                       # Number of controller write bursts merged with an existing one
system.mem_ctrls.neitherReadNorWriteReqs            0                       # Number of requests that are neither read nor write
system.mem_ctrls.avgRdQLen                       1.00                       # Average read queue length when enqueuing
system.mem_ctrls.avgWrQLen                      12.70                       # Average write queue length when enqueuing
system.mem_ctrls.numRdRetry                         0                       # Number of times read queue was full causing retry
system.mem_ctrls.numWrRetry                         0                       # Number of times write queue was full causing retry
system.mem_ctrls.readPktSize::0                     0                       # Read request sizes (log2)
system.mem_ctrls.readPktSize::1                     0                       # Read request sizes (log2)
system.mem_ctrls.readPktSize::2                     0                       # Read request sizes (log2)
system.mem_ctrls.readPktSize::3                     0                       # Read request sizes (log2)
system.mem_ctrls.readPktSize::4                     0                       # Read request sizes (log2)
system.mem_ctrls.readPktSize::5                  7933                       # Read request sizes (log2)
system.mem_ctrls.writePktSize::0                    0                       # Write request sizes (log2)
system.mem_ctrls.writePktSize::1                    0                       # Write request sizes (log2)
system.mem_ctrls.writePktSize::2                    0                       # Write request sizes (log2)
system.mem_ctrls.writePktSize::3                    0                       # Write request sizes (log2)
system.mem_ctrls.writePktSize::4                    0                       # Write request sizes (log2)
system.mem_ctrls.writePktSize::5                  122                       # Write request sizes (log2)
system.mem_ctrls.rdQLenPdf::0                    7926                       # What read queue length does an incoming req see
system.mem_ctrls.rdQLenPdf::1                       2                       # What read queue length does an incoming req see
system.mem_ctrls.rdQLenPdf::2                       0                       # What read queue length does an incoming req see
system.mem_ctrls.rdQLenPdf::3                       0                       # What read queue length does an incoming req see
system.mem_ctrls.rdQLenPdf::4                       0                       # What read queue length does an incoming req see
system.mem_ctrls.rdQLenPdf::5                       0                       # What read queue length does an incoming req see
system.mem_ctrls.rdQLenPdf::6                       0                       # What read queue length does an incoming req see
system.mem_ctrls.rdQLenPdf::7                       0                       # What read queue length does an incoming req see
system.mem_ctrls.rdQLenPdf::8                       0                       # What read queue length does an incoming req see
system.mem_ctrls.rdQLenPdf::9                       0                       # What read queue length does an incoming req see
system.mem_ctrls.rdQLenPdf::10                      0                       # What read queue length does an incoming req see
system.mem_ctrls.rdQLenPdf::11                      0                       # What read queue length does an incoming req see
system.mem_ctrls.rdQLenPdf::12                      0                       # What read queue length does an incoming req see
system.mem_ctrls.rdQLenPdf::13                      0                       # What read queue length does an incoming req see
system.mem_ctrls.rdQLenPdf::14                      0                       # What read queue length does an incoming req see
system.mem_ctrls.rdQLenPdf::15                      0                       # What read queue length does an incoming req see
system.mem_ctrls.rdQLenPdf::16                      0                       # What read queue length does an incoming req see
system.mem_ctrls.rdQLenPdf::17                      0                       # What read queue length does an incoming req see
system.mem_ctrls.rdQLenPdf::18                      0                       # What read queue length does an incoming req see
system.mem_ctrls.rdQLenPdf::19                      0                       # What read queue length does an incoming req see
system.mem_ctrls.rdQLenPdf::20                      0                       # What read queue length does an incoming req see
system.mem_ctrls.rdQLenPdf::21                      0                       # What read queue length does an incoming req see
system.mem_ctrls.rdQLenPdf::22                      0                       # What read queue length does an incoming req see
system.mem_ctrls.rdQLenPdf::23                      0                       # What read queue length does an incoming req see
system.mem_ctrls.rdQLenPdf::24                      0                       # What read queue length does an incoming req see
system.mem_ctrls.rdQLenPdf::25                      0                       # What read queue length does an incoming req see
system.mem_ctrls.rdQLenPdf::26                      0                       # What read queue length does an incoming req see
system.mem_ctrls.rdQLenPdf::27                      0                       # What read queue length does an incoming req see
system.mem_ctrls.rdQLenPdf::28                      0                       # What read queue length does an incoming req see
system.mem_ctrls.rdQLenPdf::29                      0                       # What read queue length does an incoming req see
system.mem_ctrls.rdQLenPdf::30                      0                       # What read queue length does an incoming req see
system.mem_ctrls.rdQLenPdf::31                      0                       # What read queue length does an incoming req see
system.mem_ctrls.wrQLenPdf::0                       1                       # What write queue length does an incoming req see
system.mem_ctrls.wrQLenPdf::1                       1                       # What write queue length does an incoming req see
system.mem_ctrls.wrQLenPdf::2                       1                       # What write queue length does an incoming req see
system.mem_ctrls.wrQLenPdf::3                       1                       # What write queue length does an incoming req see
system.mem_ctrls.wrQLenPdf::4                       1                       # What write queue length does an incoming req see
system.mem_ctrls.wrQLenPdf::5                       1                       # What write queue length does an incoming req see
system.mem_ctrls.wrQLenPdf::6                       1                       # What write queue length does an incoming req see
system.mem_ctrls.wrQLenPdf::7                       1                       # What write queue length does an incoming req see
system.mem_ctrls.wrQLenPdf::8                       1                       # What write queue length does an incoming req see
system.mem_ctrls.wrQLenPdf::9                       1                       # What write queue length does an incoming req see
system.mem_ctrls.wrQLenPdf::10                      1                       # What write queue length does an incoming req see
system.mem_ctrls.wrQLenPdf::11                      1                       # What write queue length does an incoming req see
system.mem_ctrls.wrQLenPdf::12                      1                       # What write queue length does an incoming req see
system.mem_ctrls.wrQLenPdf::13                      1                       # What write queue length does an incoming req see
system.mem_ctrls.wrQLenPdf::14                      1                       # What write queue length does an incoming req see
system.mem_ctrls.wrQLenPdf::15                      2                       # What write queue length does an incoming req see
system.mem_ctrls.wrQLenPdf::16                      2                       # What write queue length does an incoming req see
system.mem_ctrls.wrQLenPdf::17                      6                       # What write queue length does an incoming req see
system.mem_ctrls.wrQLenPdf::18                      6                       # What write queue length does an incoming req see
system.mem_ctrls.wrQLenPdf::19                      6                       # What write queue length does an incoming req see
system.mem_ctrls.wrQLenPdf::20                      6                       # What write queue length does an incoming req see
system.mem_ctrls.wrQLenPdf::21                      6                       # What write queue length does an incoming req see
system.mem_ctrls.wrQLenPdf::22                      6                       # What write queue length does an incoming req see
system.mem_ctrls.wrQLenPdf::23                      5                       # What write queue length does an incoming req see
system.mem_ctrls.wrQLenPdf::24                      5                       # What write queue length does an incoming req see
system.mem_ctrls.wrQLenPdf::25                      5                       # What write queue length does an incoming req see
system.mem_ctrls.wrQLenPdf::26                      5                       # What write queue length does an incoming req see
system.mem_ctrls.wrQLenPdf::27                      5                       # What write queue length does an incoming req see
system.mem_ctrls.wrQLenPdf::28                      5                       # What write queue length does an incoming req see
system.mem_ctrls.wrQLenPdf::29                      5                       # What write queue length does an incoming req see
system.mem_ctrls.wrQLenPdf::30                      5                       # What write queue length does an incoming req see
system.mem_ctrls.wrQLenPdf::31                      5                       # What write queue length does an incoming req see
system.mem_ctrls.wrQLenPdf::32                      5                       # What write queue length does an incoming req see
system.mem_ctrls.wrQLenPdf::33                      0                       # What write queue length does an incoming req see
system.mem_ctrls.wrQLenPdf::34                      0                       # What write queue length does an incoming req see
system.mem_ctrls.wrQLenPdf::35                      0                       # What write queue length does an incoming req see
system.mem_ctrls.wrQLenPdf::36                      0                       # What write queue length does an incoming req see
system.mem_ctrls.wrQLenPdf::37                      0                       # What write queue length does an incoming req see
system.mem_ctrls.wrQLenPdf::38                      0                       # What write queue length does an incoming req see
system.mem_ctrls.wrQLenPdf::39                      0                       # What write queue length does an incoming req see
system.mem_ctrls.wrQLenPdf::40                      0                       # What write queue length does an incoming req see
system.mem_ctrls.wrQLenPdf::41                      0                       # What write queue length does an incoming req see
system.mem_ctrls.wrQLenPdf::42                      0                       # What write queue length does an incoming req see
system.mem_ctrls.wrQLenPdf::43                      0                       # What write queue length does an incoming req see
system.mem_ctrls.wrQLenPdf::44                      0                       # What write queue length does an incoming req see
system.mem_ctrls.wrQLenPdf::45                      0                       # What write queue length does an incoming req see
system.mem_ctrls.wrQLenPdf::46                      0                       # What write queue length does an incoming req see
system.mem_ctrls.wrQLenPdf::47                      0                       # What write queue length does an incoming req see
system.mem_ctrls.wrQLenPdf::48                      0                       # What write queue length does an incoming req see
system.mem_ctrls.wrQLenPdf::49                      0                       # What write queue length does an incoming req see
system.mem_ctrls.wrQLenPdf::50                      0                       # What write queue length does an incoming req see
system.mem_ctrls.wrQLenPdf::51                      0                       # What write queue length does an incoming req see
system.mem_ctrls.wrQLenPdf::52                      0                       # What write queue length does an incoming req see
system.mem_ctrls.wrQLenPdf::53                      0                       # What write queue length does an incoming req see
system.mem_ctrls.wrQLenPdf::54                      0                       # What write queue length does an incoming req see
system.mem_ctrls.wrQLenPdf::55                      0                       # What write queue length does an incoming req see
system.mem_ctrls.wrQLenPdf::56                      0                       # What write queue length does an incoming req see
system.mem_ctrls.wrQLenPdf::57                      0                       # What write queue length does an incoming req see
system.mem_ctrls.wrQLenPdf::58                      0                       # What write queue length does an incoming req see
system.mem_ctrls.wrQLenPdf::59                      0                       # What write queue length does an incoming req see
system.mem_ctrls.wrQLenPdf::60                      0                       # What write queue length does an incoming req see
system.mem_ctrls.wrQLenPdf::61                      0                       # What write queue length does an incoming req see
system.mem_ctrls.wrQLenPdf::62                      0                       # What write queue length does an incoming req see
system.mem_ctrls.wrQLenPdf::63                      0                       # What write queue length does an incoming req see
system.mem_ctrls.rdPerTurnAround::samples            5                       # Reads before turning the bus around for writes
system.mem_ctrls.rdPerTurnAround::mean           1582                       # Reads before turning the bus around for writes
system.mem_ctrls.rdPerTurnAround::gmean    637.937950                       # Reads before turning the bus around for writes
system.mem_ctrls.rdPerTurnAround::stdev   2738.086193                       # Reads before turning the bus around for writes
system.mem_ctrls.rdPerTurnAround::256-511            4     80.00%     80.00% # Reads before turning the bus around for writes
system.mem_ctrls.rdPerTurnAround::6400-6655            1     20.00%    100.00% # Reads before turning the bus around for writes
system.mem_ctrls.rdPerTurnAround::total             5                       # Reads before turning the bus around for writes
system.mem_ctrls.wrPerTurnAround::samples            5                       # Writes before turning the bus around for reads
system.mem_ctrls.wrPerTurnAround::mean      16.400000                       # Writes before turning the bus around for reads
system.mem_ctrls.wrPerTurnAround::gmean     16.381380                       # Writes before turning the bus around for reads
system.mem_ctrls.wrPerTurnAround::stdev      0.894427                       # Writes before turning the bus around for reads
system.mem_ctrls.wrPerTurnAround::16                4     80.00%     80.00% # Writes before turning the bus around for reads
system.mem_ctrls.wrPerTurnAround::18                1     20.00%    100.00% # Writes before turning the bus around for reads
system.mem_ctrls.wrPerTurnAround::total             5                       # Writes before turning the bus around for reads
system.mem_ctrls.bytesReadWrQ                     320                       # Total number of bytes read from write queue
system.mem_ctrls.bytesReadSys                  253856                       # Total read bytes from the system interface side
[...]
system.mem_ctrls.dram.bw_total::.cpu.data    114996205                       # Total bandwidth to/from this memory (bytes/s)
system.mem_ctrls.dram.bw_total::total       175235420                       # Total bandwidth to/from this memory (bytes/s)
system.mem_ctrls.dram.readBursts                 7928                       # Number of DRAM read bursts
system.mem_ctrls.dram.writeBursts                  82                       # Number of DRAM write bursts
system.mem_ctrls.dram.perBankRdBursts::0          653                       # Per bank write bursts
system.mem_ctrls.dram.perBankRdBursts::1          424                       # Per bank write bursts
system.mem_ctrls.dram.perBankRdBursts::2          452                       # Per bank write bursts
system.mem_ctrls.dram.perBankRdBursts::3          525                       # Per bank write bursts
system.mem_ctrls.dram.perBankRdBursts::4          541                       # Per bank write bursts
system.mem_ctrls.dram.perBankRdBursts::5          337                       # Per bank write bursts
system.mem_ctrls.dram.perBankRdBursts::6          497                       # Per bank write bursts
system.mem_ctrls.dram.perBankRdBursts::7          402                       # Per bank write bursts
system.mem_ctrls.dram.perBankRdBursts::8          316                       # Per bank write bursts
system.mem_ctrls.dram.perBankRdBursts::9          710                       # Per bank write bursts
system.mem_ctrls.dram.perBankRdBursts::10          872                       # Per bank write bursts
system.mem_ctrls.dram.perBankRdBursts::11          475                       # Per bank write bursts
system.mem_ctrls.dram.perBankRdBursts::12          491                       # Per bank write bursts
system.mem_ctrls.dram.perBankRdBursts::13          451                       # Per bank write bursts
system.mem_ctrls.dram.perBankRdBursts::14          332                       # Per bank write bursts
system.mem_ctrls.dram.perBankRdBursts::15          450                       # Per bank write bursts
system.mem_ctrls.dram.perBankWrBursts::0            0                       # Per bank write bursts
system.mem_ctrls.dram.perBankWrBursts::1            0                       # Per bank write bursts
system.mem_ctrls.dram.perBankWrBursts::2            0                       # Per bank write bursts
system.mem_ctrls.dram.perBankWrBursts::3            0                       # Per bank write bursts
system.mem_ctrls.dram.perBankWrBursts::4            3                       # Per bank write bursts
system.mem_ctrls.dram.perBankWrBursts::5            1                       # Per bank write bursts
system.mem_ctrls.dram.perBankWrBursts::6            0                       # Per bank write bursts
system.mem_ctrls.dram.perBankWrBursts::7            0                       # Per bank write bursts
system.mem_ctrls.dram.perBankWrBursts::8            5                       # Per bank write bursts
system.mem_ctrls.dram.perBankWrBursts::9           41                       # Per bank write bursts
system.mem_ctrls.dram.perBankWrBursts::10           23                       # Per bank write bursts
system.mem_ctrls.dram.perBankWrBursts::11            4                       # Per bank write bursts
system.mem_ctrls.dram.perBankWrBursts::12            0                       # Per bank write bursts
system.mem_ctrls.dram.perBankWrBursts::13            0                       # Per bank write bursts
system.mem_ctrls.dram.perBankWrBursts::14            0                       # Per bank write bursts
system.mem_ctrls.dram.perBankWrBursts::15            5                       # Per bank write bursts
system.mem_ctrls.dram.totQLat                46690250                       # Total ticks spent queuing
system.mem_ctrls.dram.totBusLat              39640000                       # Total ticks spent in databus transfers
system.mem_ctrls.dram.totMemAccLat          195340250                       # Total ticks spent from burst creation until serviced by the DRAM
system.mem_ctrls.dram.avgQLat                 5889.28                       # Average queueing delay per DRAM burst
system.mem_ctrls.dram.avgBusLat               5000.00                       # Average bus latency per DRAM burst
system.mem_ctrls.dram.avgMemAccLat           24639.28                       # Average memory access latency per DRAM burst
system.mem_ctrls.dram.readRowHits                6591                       # Number of row buffer hits during reads
system.mem_ctrls.dram.writeRowHits                 69                       # Number of row buffer hits during writes
system.mem_ctrls.dram.readRowHitRate            83.14                       # Row buffer hit rate for reads
system.mem_ctrls.dram.writeRowHitRate           84.15                       # Row buffer hit rate for writes
system.mem_ctrls.dram.bytesPerActivate::samples         1340                       # Bytes accessed per row activation
system.mem_ctrls.dram.bytesPerActivate::mean   379.797015                       # Bytes accessed per row activation
system.mem_ctrls.dram.bytesPerActivate::gmean   230.979898                       # Bytes accessed per row activation
system.mem_ctrls.dram.bytesPerActivate::stdev   358.626882                       # Bytes accessed per row activation
system.mem_ctrls.dram.bytesPerActivate::0-127          359     26.79%     26.79% # Bytes accessed per row activation
system.mem_ctrls.dram.bytesPerActivate::128-255          336     25.07%     51.87% # Bytes accessed per row activation
system.mem_ctrls.dram.bytesPerActivate::256-383          151     11.27%     63.13% # Bytes accessed per row activation
system.mem_ctrls.dram.bytesPerActivate::384-511           95      7.09%     70.22% # Bytes accessed per row activation
system.mem_ctrls.dram.bytesPerActivate::512-639           69      5.15%     75.37% # Bytes accessed per row activation
system.mem_ctrls.dram.bytesPerActivate::640-767           35      2.61%     77.99% # Bytes accessed per row activation
system.mem_ctrls.dram.bytesPerActivate::768-895           31      2.31%     80.30% # Bytes accessed per row activation
system.mem_ctrls.dram.bytesPerActivate::896-1023           29      2.16%     82.46% # Bytes accessed per row activation
system.mem_ctrls.dram.bytesPerActivate::1024-1151          235     17.54%    100.00% # Bytes accessed per row activation
system.mem_ctrls.dram.bytesPerActivate::total         1340                       # Bytes accessed per row activation
system.mem_ctrls.dram.bytesRead                507392                       # Total number of bytes read from DRAM
system.mem_ctrls.dram.bytesWritten               5248                       # Total number of bytes written to DRAM
system.mem_ctrls.dram.avgRdBW              344.945105                       # Average DRAM read bandwidth in MiBytes/s
system.mem_ctrls.dram.avgWrBW                3.567798                       # Average DRAM write bandwidth in MiBytes/s
system.mem_ctrls.dram.peakBW                 12800.00                       # Theoretical peak bandwidth in MiByte/s
system.mem_ctrls.dram.busUtil                    2.72                       # Data bus utilization in percentage
system.mem_ctrls.dram.busUtilRead                2.69                       # Data bus utilization in percentage for reads
system.mem_ctrls.dram.busUtilWrite               0.03                       # Data bus utilization in percentage for writes
system.mem_ctrls.dram.pageHitRate               83.15                       # Row buffer hit rate, read and write combined
system.mem_ctrls.dram.power_state.pwrStateResidencyTicks::UNDEFINED   1470935500                       # Cumulative time (in ticks) in various power states
system.mem_ctrls.dram.rank0.actEnergy         5133660                       # Energy for activate commands per rank (pJ)
system.mem_ctrls.dram.rank0.preEnergy         2713425                       # Energy for precharge commands per rank (pJ)
system.mem_ctrls.dram.rank0.readEnergy       27353340                       # Energy for read commands per rank (pJ)
system.mem_ctrls.dram.rank0.writeEnergy         20880                       # Energy for write commands per rank (pJ)
system.mem_ctrls.dram.rank0.refreshEnergy 115552320.000000                       # Energy for refresh commands per rank (pJ)
system.mem_ctrls.dram.rank0.actBackEnergy    389400630                       # Energy for active background per rank (pJ)
system.mem_ctrls.dram.rank0.preBackEnergy    236923200                       # Energy for precharge background per rank (pJ)
system.mem_ctrls.dram.rank0.actPowerDownEnergy            0                       # Energy for active power-down per rank (pJ)
system.mem_ctrls.dram.rank0.prePowerDownEnergy            0                       # Energy for precharge power-down per rank (pJ)
system.mem_ctrls.dram.rank0.selfRefreshEnergy            0                       # Energy for self refresh per rank (pJ)
system.mem_ctrls.dram.rank0.totalEnergy     777097455                       # Total energy per rank (pJ)
system.mem_ctrls.dram.rank0.averagePower   528.301516                       # Core power per rank (mW)
system.mem_ctrls.dram.rank0.totalIdleTime            0                       # Total Idle time Per DRAM Rank
system.mem_ctrls.dram.rank0.pwrStateTime::IDLE    612430500                       # Time in different power states
system.mem_ctrls.dram.rank0.pwrStateTime::REF     48880000                       # Time in different power states
system.mem_ctrls.dram.rank0.pwrStateTime::SREF            0                       # Time in different power states
system.mem_ctrls.dram.rank0.pwrStateTime::PRE_PDN            0                       # Time in different power states
system.mem_ctrls.dram.rank0.pwrStateTime::ACT    809625000                       # Time in different power states
system.mem_ctrls.dram.rank0.pwrStateTime::ACT_PDN            0                       # Time in different power states
system.mem_ctrls.dram.rank1.actEnergy         4505340                       # Energy for activate commands per rank (pJ)
system.mem_ctrls.dram.rank1.preEnergy         2371875                       # Energy for precharge commands per rank (pJ)
system.mem_ctrls.dram.rank1.readEnergy       29252580                       # Energy for read commands per rank (pJ)
system.mem_ctrls.dram.rank1.writeEnergy        407160                       # Energy for write commands per rank (pJ)
system.mem_ctrls.dram.rank1.refreshEnergy 115552320.000000                       # Energy for refresh commands per rank (pJ)
system.mem_ctrls.dram.rank1.actBackEnergy    408241410                       # Energy for active background per rank (pJ)
system.mem_ctrls.dram.rank1.preBackEnergy    221057280                       # Energy for precharge background per rank (pJ)
system.mem_ctrls.dram.rank1.actPowerDownEnergy            0                       # Energy for active power-down per rank (pJ)
system.mem_ctrls.dram.rank1.prePowerDownEnergy            0                       # Energy for precharge power-down per rank (pJ)
system.mem_ctrls.dram.rank1.selfRefreshEnergy            0                       # Energy for self refresh per rank (pJ)
system.mem_ctrls.dram.rank1.totalEnergy     781387965                       # Total energy per rank (pJ)
system.mem_ctrls.dram.rank1.averagePower   531.218374                       # Core power per rank (mW)
system.mem_ctrls.dram.rank1.totalIdleTime            0                       # Total Idle time Per DRAM Rank
system.mem_ctrls.dram.rank1.pwrStateTime::IDLE    570614250                       # Time in different power states
system.mem_ctrls.dram.rank1.pwrStateTime::REF     48880000                       # Time in different power states
system.mem_ctrls.dram.rank1.pwrStateTime::SREF            0                       # Time in different power states
system.mem_ctrls.dram.rank1.pwrStateTime::PRE_PDN            0                       # Time in different power states
system.mem_ctrls.dram.rank1.pwrStateTime::ACT    851441250                       # Time in different power states
system.mem_ctrls.dram.rank1.pwrStateTime::ACT_PDN            0                       # Time in different power states
system.mem_ctrls.power_state.pwrStateResidencyTicks::UNDEFINED   1470935500                       # Cumulative time (in ticks) in various power states
system.membus.trans_dist::ReadResp               6808                       # Transaction distribution
system.membus.trans_dist::WritebackDirty          122                       # Transaction distribution
system.membus.trans_dist::CleanEvict             1002                       # Transaction distribution
system.membus.trans_dist::ReadExReq              1125                       # Transaction distribution
system.membus.trans_dist::ReadExResp             1125                       # Transaction distribution
system.membus.trans_dist::ReadSharedReq          6808                       # Transaction distribution
system.membus.pkt_count_system.l2.mem_side_port::system.mem_ctrls.port        16990                       # Packet count per connected requestor and responder (bytes)
system.membus.pkt_count_system.l2.mem_side_port::total        16990                       # Packet count per connected requestor and responder (bytes)
system.membus.pkt_count::total                  16990                       # Packet count per connected requestor and responder (bytes)
system.membus.pkt_size_system.l2.mem_side_port::system.mem_ctrls.port       257760                       # Cumulative packet size per connected requestor and responder (bytes)
system.membus.pkt_size_system.l2.mem_side_port::total       257760                       # Cumulative packet size per connected requestor and responder (bytes)
system.membus.pkt_size::total                  257760                       # Cumulative packet size per connected requestor and responder (bytes)
system.membus.snoops                                0                       # Total snoops (count)
system.membus.snoopTraffic                          0                       # Total snoop traffic (bytes)
system.membus.snoop_fanout::samples              7933                       # Request fanout histogram
system.membus.snoop_fanout::mean                    0                       # Request fanout histogram
system.membus.snoop_fanout::stdev                   0                       # Request fanout histogram
system.membus.snoop_fanout::underflows              0      0.00%      0.00% # Request fanout histogram
system.membus.snoop_fanout::0                    7933    100.00%    100.00% # Request fanout histogram
system.membus.snoop_fanout::1                       0      0.00%    100.00% # Request fanout histogram
system.membus.snoop_fanout::overflows               0      0.00%    100.00% # Request fanout histogram
system.membus.snoop_fanout::min_value               0                       # Request fanout histogram
system.membus.snoop_fanout::max_value               0                       # Request fanout histogram
system.membus.snoop_fanout::total                7933                       # Request fanout histogram
system.membus.power_state.pwrStateResidencyTicks::UNDEFINED   1470935500                       # Cumulative time (in ticks) in various power states
system.membus.reqLayer2.occupancy             9319500                       # Layer occupancy (ticks)
system.membus.reqLayer2.utilization               0.6                       # Layer utilization (%)
system.membus.respLayer1.occupancy           26169750                       # Layer occupancy (ticks)
system.membus.respLayer1.utilization              1.8                       # Layer utilization (%)
system.tol2bus.trans_dist::ReadResp              6932                       # Transaction distribution
system.tol2bus.trans_dist::WritebackDirty          731                       # Transaction distribution
system.tol2bus.trans_dist::WritebackClean          316                       # Transaction distribution
system.tol2bus.trans_dist::CleanEvict            5624                       # Transaction distribution
system.tol2bus.trans_dist::ReadExReq             1188                       # Transaction distribution
system.tol2bus.trans_dist::ReadExResp            1188                       # Transaction distribution
system.tol2bus.trans_dist::ReadCleanReq          2659                       # Transaction distribution
system.tol2bus.trans_dist::ReadSharedReq         4273                       # Transaction distribution
system.tol2bus.pkt_count_system.cpu.icache.mem_side_port::system.l2.cpu_side_port         5634                       # Packet count per connected requestor and responder (bytes)
system.tol2bus.pkt_count_system.cpu.dcache.mem_side_port::system.l2.cpu_side_port        12500                       # Packet count per connected requestor and responder (bytes)
system.tol2bus.pkt_count::total                 18134                       # Packet count per connected requestor and responder (bytes)
system.tol2bus.pkt_size_system.cpu.icache.mem_side_port::system.l2.cpu_side_port        95200                       # Cumulative packet size per connected requestor and responder (bytes)
system.tol2bus.pkt_size_system.cpu.dcache.mem_side_port::system.l2.cpu_side_port       194240                       # Cumulative packet size per connected requestor and responder (bytes)
system.tol2bus.pkt_size::total                 289440                       # Cumulative packet size per connected requestor and responder (bytes)
system.tol2bus.snoops                            4777                       # Total snoops (count)
system.tol2bus.snoopTraffic                      3904                       # Total snoop traffic (bytes)
system.tol2bus.snoop_fanout::samples            12897                       # Request fanout histogram
system.tol2bus.snoop_fanout::mean            0.351477                       # Request fanout histogram
system.tol2bus.snoop_fanout::stdev           0.477450                       # Request fanout histogram
system.tol2bus.snoop_fanout::underflows             0      0.00%      0.00% # Request fanout histogram
system.tol2bus.snoop_fanout::0                   8364     64.85%     64.85% # Request fanout histogram
system.tol2bus.snoop_fanout::1                   4533     35.15%    100.00% # Request fanout histogram
system.tol2bus.snoop_fanout::2                      0      0.00%    100.00% # Request fanout histogram
system.tol2bus.snoop_fanout::3                      0      0.00%    100.00% # Request fanout histogram
system.tol2bus.snoop_fanout::4                      0      0.00%    100.00% # Request fanout histogram
system.tol2bus.snoop_fanout::overflows              0      0.00%    100.00% # Request fanout histogram
system.tol2bus.snoop_fanout::min_value              0                       # Request fanout histogram
system.tol2bus.snoop_fanout::max_value              1                       # Request fanout histogram
system.tol2bus.snoop_fanout::total              12897                       # Request fanout histogram
system.tol2bus.power_state.pwrStateResidencyTicks::UNDEFINED   1470935500                       # Cumulative time (in ticks) in various power states
system.tol2bus.reqLayer0.occupancy            5469500                       # Layer occupancy (ticks)
system.tol2bus.reqLayer0.utilization              0.4                       # Layer utilization (%)
system.tol2bus.respLayer0.occupancy           2659000                       # Layer occupancy (ticks)
system.tol2bus.respLayer0.utilization             0.2                       # Layer utilization (%)
system.tol2bus.respLayer1.occupancy           5461000                       # Layer occupancy (ticks)
system.tol2bus.respLayer1.utilization             0.4                       # Layer utilization (%)
system.voltage_domain.voltage                       1                       # Voltage in Volts

---------- End Simulation Statistics   ----------
