
---------- Begin Simulation Statistics ----------
final_tick                                 1204485500                       # Number of ticks from beginning of simulation (restored from checkpoints and never reset)
host_inst_rate                                 444339                       # Simulator instruction rate (inst/s)
host_mem_usage                                 679484                       # Number of bytes of host memory used
host_op_rate                                   829330                       # Simulator op (including micro ops) rate (op/s)
host_seconds                                     1.06                       # Real time elapsed on the host
host_tick_rate                             1138070334                       # Simulator tick rate (ticks/s)
sim_freq                                 1000000000000                       # Frequency of simulated ticks
sim_insts                                      470192                       # Number of instructions simulated
sim_ops                                        877675                       # Number of ops (including micro ops) simulated
sim_seconds                                  0.001204                       # Number of seconds simulated
sim_ticks                                  1204485500                       # Number of ticks simulated
system.cpu.Branches                             72572                       # Number of branches fetched
system.cpu.committedInsts                      470192                       # Number of instructions committed
system.cpu.committedOps                        877675                       # Number of ops (including micro ops) committed
system.cpu.idle_fraction                     0.000000                       # Percentage of idle cycles
system.cpu.not_idle_fraction                 1.000000                       # Percentage of non-idle cycles
system.cpu.numCycles                          2408971                       # number of cpu cycles simulated
system.cpu.numWorkItemsCompleted                    0                       # number of work items this cpu completed
system.cpu.numWorkItemsStarted                      0                       # number of work items this cpu started
system.cpu.num_busy_cycles               2408970.998000                       # Number of busy cycles
system.cpu.num_cc_register_reads               329747                       # number of times the CC registers were read
system.cpu.num_cc_register_writes              220558                       # number of times the CC registers were written
system.cpu.num_conditional_control_insts        50036                       # number of instructions that are conditional controls
system.cpu.num_fp_alu_accesses                 253735                       # Number of float alu accesses
system.cpu.num_fp_insts                        253735                       # number of float instructions
system.cpu.num_fp_register_reads               239399                       # number of times the floating registers were read
system.cpu.num_fp_register_writes              213269                       # number of times the floating registers were written
system.cpu.num_func_calls                       13686                       # number of times a function call or return occured
system.cpu.num_idle_cycles                   0.002000                       # Number of idle cycles
system.cpu.num_int_alu_accesses                720164                       # Number of integer alu accesses
system.cpu.num_int_insts                       720164                       # number of integer instructions
system.cpu.num_int_register_reads             1479551                       # number of times the integer registers were read
system.cpu.num_int_register_writes             517683                       # number of times the integer registers were written
system.cpu.num_load_insts                      144767                       # Number of load instructions
system.cpu.num_mem_refs                        211967                       # number of memory refs
system.cpu.num_store_insts                      67200                       # Number of store instructions
system.cpu.num_vec_alu_accesses                     0                       # Number of vector alu accesses
system.cpu.num_vec_insts                            0                       # number of vector instructions
system.cpu.num_vec_register_reads                   0                       # number of times the vector registers were read
system.cpu.num_vec_register_writes                  0                       # number of times the vector registers were written
system.cpu.op_class::No_OpClass                 11335      1.29%      1.29% # Class of executed instruction
system.cpu.op_class::IntAlu                    504497     57.47%     58.76% # Class of executed instruction
system.cpu.op_class::IntMult                      123      0.01%     58.78% # Class of executed instruction
system.cpu.op_class::IntDiv                      2125      0.24%     59.02% # Class of executed instruction
system.cpu.op_class::FloatAdd                   69680      7.94%     66.96% # Class of executed instruction
system.cpu.op_class::FloatCmp                       0      0.00%     66.96% # Class of executed instruction
system.cpu.op_class::FloatCvt                      32      0.00%     66.96% # Class of executed instruction
system.cpu.op_class::FloatMult                      0      0.00%     66.96% # Class of executed instruction
system.cpu.op_class::FloatMultAcc                   0      0.00%     66.96% # Class of executed instruction
system.cpu.op_class::FloatDiv                       0      0.00%     66.96% # Class of executed instruction
system.cpu.op_class::FloatMisc                      0      0.00%     66.96% # Class of executed instruction
system.cpu.op_class::FloatSqrt                      0      0.00%     66.96% # Class of executed instruction
system.cpu.op_class::SimdAdd                      554      0.06%     67.02% # Class of executed instruction
system.cpu.op_class::SimdAddAcc                     0      0.00%     67.02% # Class of executed instruction
system.cpu.op_class::SimdAlu                     9039      1.03%     68.05% # Class of executed instruction
system.cpu.op_class::SimdCmp                        0      0.00%     68.05% # Class of executed instruction
system.cpu.op_class::SimdCvt                     1366      0.16%     68.21% # Class of executed instruction
system.cpu.op_class::SimdMisc                   11506      1.31%     69.52% # Class of executed instruction
system.cpu.op_class::SimdMult                       0      0.00%     69.52% # Class of executed instruction
system.cpu.op_class::SimdMultAcc                    0      0.00%     69.52% # Class of executed instruction
system.cpu.op_class::SimdShift                    174      0.02%     69.54% # Class of executed instruction
system.cpu.op_class::SimdShiftAcc                   0      0.00%     69.54% # Class of executed instruction
system.cpu.op_class::SimdDiv                        0      0.00%     69.54% # Class of executed instruction
system.cpu.op_class::SimdSqrt                       0      0.00%     69.54% # Class of executed instruction
system.cpu.op_class::SimdFloatAdd               15212      1.73%     71.27% # Class of executed instruction
system.cpu.op_class::SimdFloatAlu                   0      0.00%     71.27% # Class of executed instruction
system.cpu.op_class::SimdFloatCmp                   0      0.00%     71.27% # Class of executed instruction
system.cpu.op_class::SimdFloatCvt               15412      1.76%     73.03% # Class of executed instruction
system.cpu.op_class::SimdFloatDiv                1600      0.18%     73.21% # Class of executed instruction
system.cpu.op_class::SimdFloatMisc                  0      0.00%     73.21% # Class of executed instruction
system.cpu.op_class::SimdFloatMult              22800      2.60%     75.81% # Class of executed instruction
system.cpu.op_class::SimdFloatMultAcc               0      0.00%     75.81% # Class of executed instruction
system.cpu.op_class::SimdFloatSqrt                400      0.05%     75.85% # Class of executed instruction
system.cpu.op_class::SimdReduceAdd                  0      0.00%     75.85% # Class of executed instruction
system.cpu.op_class::SimdReduceAlu                  0      0.00%     75.85% # Class of executed instruction
system.cpu.op_class::SimdReduceCmp                  0      0.00%     75.85% # Class of executed instruction
system.cpu.op_class::SimdFloatReduceAdd             0      0.00%     75.85% # Class of executed instruction
system.cpu.op_class::SimdFloatReduceCmp             0      0.00%     75.85% # Class of executed instruction
system.cpu.op_class::SimdAes                        0      0.00%     75.85% # Class of executed instruction
system.cpu.op_class::SimdAesMix                     0      0.00%     75.85% # Class of executed instruction
system.cpu.op_class::SimdSha1Hash                   0      0.00%     75.85% # Class of executed instruction
system.cpu.op_class::SimdSha1Hash2                  0      0.00%     75.85% # Class of executed instruction
system.cpu.op_class::SimdSha256Hash                 0      0.00%     75.85% # Class of executed instruction
system.cpu.op_class::SimdSha256Hash2                0      0.00%     75.85% # Class of executed instruction
system.cpu.op_class::SimdShaSigma2                  0      0.00%     75.85% # Class of executed instruction
system.cpu.op_class::SimdShaSigma3                  0      0.00%     75.85% # Class of executed instruction
system.cpu.op_class::SimdPredAlu                    0      0.00%     75.85% # Class of executed instruction
system.cpu.op_class::MemRead                    82109      9.35%     85.21% # Class of executed instruction
system.cpu.op_class::MemWrite                   33563      3.82%     89.03% # Class of executed instruction
system.cpu.op_class::FloatMemRead               62658      7.14%     96.17% # Class of executed instruction
system.cpu.op_class::FloatMemWrite              33637      3.83%    100.00% # Class of executed instruction
system.cpu.op_class::IprAccess                      0      0.00%    100.00% # Class of executed instruction
system.cpu.op_class::InstPrefetch                   0      0.00%    100.00% # Class of executed instruction
system.cpu.op_class::total                     877822                       # Class of executed instruction
system.cpu.workload.numSyscalls                    57                       # Number of system calls
system.membus.snoop_filter.hit_multi_requests            0                       # Number of requests hitting in the snoop filter with multiple (>1) holders of the requested data.
system.membus.snoop_filter.hit_multi_snoops            0                       # Number of snoops hitting in the snoop filter with multiple (>1) holders of the requested data.
system.membus.snoop_filter.hit_single_requests          744                       # Number of requests hitting in the snoop filter with a single holder of the requested data.
system.membus.snoop_filter.hit_single_snoops            0                       # Number of snoops hitting in the snoop filter with a single holder of the requested data.
system.membus.snoop_filter.tot_requests          5177                       # Total number of requests made to the snoop filter.
system.membus.snoop_filter.tot_snoops               0                       # Total number of snoops made to the snoop filter.
system.tol2bus.snoop_filter.hit_multi_requests            0                       # Number of requests hitting in the snoop filter with multiple (>1) holders of the requested data.
system.tol2bus.snoop_filter.hit_multi_snoops            0                       # Number of snoops hitting in the snoop filter with multiple (>1) holders of the requested data.
system.tol2bus.snoop_filter.hit_single_requests         1263                       # Number of requests hitting in the snoop filter with a single holder of the requested data.
system.tol2bus.snoop_filter.hit_single_snoops         2814                       # Number of snoops hitting in the snoop filter with a single holder of the requested data.
system.tol2bus.snoop_filter.tot_requests         5848                       # Total number of requests made to the snoop filter.
system.tol2bus.snoop_filter.tot_snoops           2814                       # Total number of snoops made to the snoop filter.
system.clk_domain.clock                          1000                       # Clock period in ticks
system.cpu.dcache.demand_hits::.cpu.data       214107                       # number of demand (read+write) hits
system.cpu.dcache.demand_hits::total           214107                       # number of demand (read+write) hits
system.cpu.dcache.overall_hits::.cpu.data       214107                       # number of overall hits
system.cpu.dcache.overall_hits::total          214107                       # number of overall hits
system.cpu.dcache.demand_misses::.cpu.data         2983                       # number of demand (read+write) misses
system.cpu.dcache.demand_misses::total           2983                       # number of demand (read+write) misses
system.cpu.dcache.overall_misses::.cpu.data         2983                       # number of overall misses
system.cpu.dcache.overall_misses::total          2983                       # number of overall misses
system.cpu.dcache.demand_miss_latency::.cpu.data    227191500                       # number of demand (read+write) miss cycles
system.cpu.dcache.demand_miss_latency::total    227191500                       # number of demand (read+write) miss cycles
system.cpu.dcache.overall_miss_latency::.cpu.data    227191500                       # number of overall miss cycles
system.cpu.dcache.overall_miss_latency::total    227191500                       # number of overall miss cycles
system.cpu.dcache.demand_accesses::.cpu.data       217090                       # number of demand (read+write) accesses
system.cpu.dcache.demand_accesses::total       217090                       # number of demand (read+write) accesses
system.cpu.dcache.overall_accesses::.cpu.data       217090                       # number of overall (read+write) accesses
system.cpu.dcache.overall_accesses::total       217090                       # number of overall (read+write) accesses
system.cpu.dcache.demand_miss_rate::.cpu.data     0.013741                       # miss rate for demand accesses
system.cpu.dcache.demand_miss_rate::total     0.013741                       # miss rate for demand accesses
system.cpu.dcache.overall_miss_rate::.cpu.data     0.013741                       # miss rate for overall accesses
system.cpu.dcache.overall_miss_rate::total     0.013741                       # miss rate for overall accesses
system.cpu.dcache.demand_avg_miss_latency::.cpu.data 76162.085149                       # average overall miss latency
system.cpu.dcache.demand_avg_miss_latency::total 76162.085149                       # average overall miss latency
system.cpu.dcache.overall_avg_miss_latency::.cpu.data 76162.085149                       # average overall miss latency
system.cpu.dcache.overall_avg_miss_latency::total 76162.085149                       # average overall miss latency
system.cpu.dcache.blocked_cycles::no_mshrs            0                       # number of cycles access was blocked
system.cpu.dcache.blocked_cycles::no_targets            0                       # number of cycles access was blocked
system.cpu.dcache.blocked::no_mshrs                 0                       # number of cycles access was blocked
system.cpu.dcache.blocked::no_targets               0                       # number of cycles access was blocked
system.cpu.dcache.avg_blocked_cycles::no_mshrs          nan                       # average number of cycles each access was blocked
system.cpu.dcache.avg_blocked_cycles::no_targets          nan                       # average number of cycles each access was blocked
system.cpu.dcache.writebacks::.writebacks          387                       # number of writebacks
system.cpu.dcache.writebacks::total               387                       # number of writebacks
system.cpu.dcache.demand_mshr_misses::.cpu.data         2983                       # number of demand (read+write) MSHR misses
system.cpu.dcache.demand_mshr_misses::total         2983                       # number of demand (read+write) MSHR misses
system.cpu.dcache.overall_mshr_misses::.cpu.data         2983                       # number of overall MSHR misses
system.cpu.dcache.overall_mshr_misses::total         2983                       # number of overall MSHR misses
system.cpu.dcache.demand_mshr_miss_latency::.cpu.data    224208500                       # number of demand (read+write) MSHR miss cycles
system.cpu.dcache.demand_mshr_miss_latency::total    224208500                       # number of demand (read+write) MSHR miss cycles
system.cpu.dcache.overall_mshr_miss_latency::.cpu.data    224208500                       # number of overall MSHR miss cycles
system.cpu.dcache.overall_mshr_miss_latency::total    224208500                       # number of overall MSHR miss cycles
system.cpu.dcache.demand_mshr_miss_rate::.cpu.data     0.013741                       # mshr miss rate for demand accesses
system.cpu.dcache.demand_mshr_miss_rate::total     0.013741                       # mshr miss rate for demand accesses
system.cpu.dcache.overall_mshr_miss_rate::.cpu.data     0.013741                       # mshr miss rate for overall accesses
system.cpu.dcache.overall_mshr_miss_rate::total     0.013741                       # mshr miss rate for overall accesses
system.cpu.dcache.demand_avg_mshr_miss_latency::.cpu.data 75162.085149                       # average overall mshr miss latency
system.cpu.dcache.demand_avg_mshr_miss_latency::total 75162.085149                       # average overall mshr miss latency
system.cpu.dcache.overall_avg_mshr_miss_latency::.cpu.data 75162.085149                       # average overall mshr miss latency
system.cpu.dcache.overall_avg_mshr_miss_latency::total 75162.085149                       # average overall mshr miss latency
system.cpu.dcache.replacements                   1006                       # number of replacements
system.cpu.dcache.ReadReq_hits::.cpu.data       147571                       # number of ReadReq hits
system.cpu.dcache.ReadReq_hits::total          147571                       # number of ReadReq hits
system.cpu.dcache.ReadReq_misses::.cpu.data         2336                       # number of ReadReq misses
system.cpu.dcache.ReadReq_misses::total          2336                       # number of ReadReq misses
system.cpu.dcache.ReadReq_miss_latency::.cpu.data    180019000                       # number of ReadReq miss cycles
system.cpu.dcache.ReadReq_miss_latency::total    180019000                       # number of ReadReq miss cycles
system.cpu.dcache.ReadReq_accesses::.cpu.data       149907                       # number of ReadReq accesses(hits+misses)
system.cpu.dcache.ReadReq_accesses::total       149907                       # number of ReadReq accesses(hits+misses)
system.cpu.dcache.ReadReq_miss_rate::.cpu.data     0.015583                       # miss rate for ReadReq accesses
system.cpu.dcache.ReadReq_miss_rate::total     0.015583                       # miss rate for ReadReq accesses
system.cpu.dcache.ReadReq_avg_miss_latency::.cpu.data 77062.928082                       # average ReadReq miss latency
system.cpu.dcache.ReadReq_avg_miss_latency::total 77062.928082                       # average ReadReq miss latency
system.cpu.dcache.ReadReq_mshr_misses::.cpu.data         2336                       # number of ReadReq MSHR misses
system.cpu.dcache.ReadReq_mshr_misses::total         2336                       # number of ReadReq MSHR misses
system.cpu.dcache.ReadReq_mshr_miss_latency::.cpu.data    177683000                       # number of ReadReq MSHR miss cycles
system.cpu.dcache.ReadReq_mshr_miss_latency::total    177683000                       # number of ReadReq MSHR miss cycles
system.cpu.dcache.ReadReq_mshr_miss_rate::.cpu.data     0.015583                       # mshr miss rate for ReadReq accesses
system.cpu.dcache.ReadReq_mshr_miss_rate::total     0.015583                       # mshr miss rate for ReadReq accesses
system.cpu.dcache.ReadReq_avg_mshr_miss_latency::.cpu.data 76062.928082                       # average ReadReq mshr miss latency
system.cpu.dcache.ReadReq_avg_mshr_miss_latency::total 76062.928082                       # average ReadReq mshr miss latency
system.cpu.dcache.WriteReq_hits::.cpu.data        66536                       # number of WriteReq hits
system.cpu.dcache.WriteReq_hits::total          66536                       # number of WriteReq hits
system.cpu.dcache.WriteReq_misses::.cpu.data          647                       # number of WriteReq misses
system.cpu.dcache.WriteReq_misses::total          647                       # number of WriteReq misses
system.cpu.dcache.WriteReq_miss_latency::.cpu.data     47172500                       # number of WriteReq miss cycles
system.cpu.dcache.WriteReq_miss_latency::total     47172500                       # number of WriteReq miss cycles
system.cpu.dcache.WriteReq_accesses::.cpu.data        67183                       # number of WriteReq accesses(hits+misses)
system.cpu.dcache.WriteReq_accesses::total        67183                       # number of WriteReq accesses(hits+misses)
system.cpu.dcache.WriteReq_miss_rate::.cpu.data     0.009630                       # miss rate for WriteReq accesses
system.cpu.dcache.WriteReq_miss_rate::total     0.009630                       # miss rate for WriteReq accesses
system.cpu.dcache.WriteReq_avg_miss_latency::.cpu.data 72909.582689                       # average WriteReq miss latency
system.cpu.dcache.WriteReq_avg_miss_latency::total 72909.582689                       # average WriteReq miss latency
system.cpu.dcache.WriteReq_mshr_misses::.cpu.data          647                       # number of WriteReq MSHR misses
system.cpu.dcache.WriteReq_mshr_misses::total          647                       # number of WriteReq MSHR misses
system.cpu.dcache.WriteReq_mshr_miss_latency::.cpu.data     46525500                       # number of WriteReq MSHR miss cycles
system.cpu.dcache.WriteReq_mshr_miss_latency::total     46525500                       # number of WriteReq MSHR miss cycles
system.cpu.dcache.WriteReq_mshr_miss_rate::.cpu.data     0.009630                       # mshr miss rate for WriteReq accesses
system.cpu.dcache.WriteReq_mshr_miss_rate::total     0.009630                       # mshr miss rate for WriteReq accesses
system.cpu.dcache.WriteReq_avg_mshr_miss_latency::.cpu.data 71909.582689                       # average WriteReq mshr miss latency
system.cpu.dcache.WriteReq_avg_mshr_miss_latency::total 71909.582689                       # average WriteReq mshr miss latency
system.cpu.dcache.power_state.pwrStateResidencyTicks::UNDEFINED   1204485500                       # Cumulative time (in ticks) in various power states
system.cpu.dcache.tags.tagsinuse          1605.377210                       # Cycle average of tags in use
system.cpu.dcache.tags.total_refs              217090                       # Total number of references to valid blocks.
system.cpu.dcache.tags.sampled_refs              2983                       # Sample count of references to valid blocks.
system.cpu.dcache.tags.avg_refs             72.775729                       # Average number of references to valid blocks.
system.cpu.dcache.tags.warmup_cycle            174500                       # Cycle when the warmup percentage was hit.
system.cpu.dcache.tags.occ_blocks::.cpu.data  1605.377210                       # Average occupied blocks per requestor
system.cpu.dcache.tags.occ_percent::.cpu.data     0.783876                       # Average percentage of cache occupancy
system.cpu.dcache.tags.occ_percent::total     0.783876                       # Average percentage of cache occupancy
system.cpu.dcache.tags.occ_task_id_blocks::1024         1977                       # Occupied blocks per task id
system.cpu.dcache.tags.age_task_id_blocks_1024::0           22                       # Occupied blocks per task id
system.cpu.dcache.tags.age_task_id_blocks_1024::1           10                       # Occupied blocks per task id
system.cpu.dcache.tags.age_task_id_blocks_1024::2         1408                       # Occupied blocks per task id
system.cpu.dcache.tags.age_task_id_blocks_1024::3          537                       # Occupied blocks per task id
system.cpu.dcache.tags.occ_task_id_percent::1024     0.965332                       # Percentage of cache occupancy per task id
system.cpu.dcache.tags.tag_accesses            437163                       # Number of tag accesses
system.cpu.dcache.tags.data_accesses           437163                       # Number of data accesses
system.cpu.dcache.tags.power_state.pwrStateResidencyTicks::UNDEFINED   1204485500                       # Cumulative time (in ticks) in various power states
system.cpu.dtb.rdAccesses                      149980                       # TLB accesses on read requests
system.cpu.dtb.wrAccesses                       67200                       # TLB accesses on write requests
system.cpu.dtb.rdMisses                           235                       # TLB misses on read requests
system.cpu.dtb.wrMisses                            43                       # TLB misses on write requests
system.cpu.dtb.walker.power_state.pwrStateResidencyTicks::UNDEFINED   1204485500                       # Cumulative time (in ticks) in various power states
system.cpu.dtb_walker_cache.blocked_cycles::no_mshrs            0                       # number of cycles access was blocked
system.cpu.dtb_walker_cache.blocked_cycles::no_targets            0                       # number of cycles access was blocked
system.cpu.dtb_walker_cache.blocked::no_mshrs            0                       # number of cycles access was blocked
system.cpu.dtb_walker_cache.blocked::no_targets            0                       # number of cycles access was blocked
system.cpu.dtb_walker_cache.avg_blocked_cycles::no_mshrs          nan                       # average number of cycles each access was blocked
system.cpu.dtb_walker_cache.avg_blocked_cycles::no_targets          nan                       # average number of cycles each access was blocked
system.cpu.dtb_walker_cache.replacements            0                       # number of replacements
system.cpu.dtb_walker_cache.power_state.pwrStateResidencyTicks::UNDEFINED   1204485500                       # Cumulative time (in ticks) in various power states
system.cpu.dtb_walker_cache.tags.tagsinuse            0                       # Cycle average of tags in use
system.cpu.dtb_walker_cache.tags.total_refs            0                       # Total number of references to valid blocks.
system.cpu.dtb_walker_cache.tags.sampled_refs            0                       # Sample count of references to valid blocks.
system.cpu.dtb_walker_cache.tags.avg_refs          nan                       # Average number of references to valid blocks.
system.cpu.dtb_walker_cache.tags.warmup_cycle            0                       # Cycle when the warmup percentage was hit.
system.cpu.dtb_walker_cache.tags.tag_accesses            0                       # Number of tag accesses
system.cpu.dtb_walker_cache.tags.data_accesses            0                       # Number of data accesses
system.cpu.dtb_walker_cache.tags.power_state.pwrStateResidencyTicks::UNDEFINED   1204485500                       # Cumulative time (in ticks) in various power states
system.cpu.icache.demand_hits::.cpu.inst       641267                       # number of demand (read+write) hits
system.cpu.icache.demand_hits::total           641267                       # number of demand (read+write) hits
system.cpu.icache.overall_hits::.cpu.inst       641267                       # number of overall hits
system.cpu.icache.overall_hits::total          641267                       # number of overall hits
system.cpu.icache.demand_misses::.cpu.inst         1602                       # number of demand (read+write) misses
system.cpu.icache.demand_misses::total           1602                       # number of demand (read+write) misses
system.cpu.icache.overall_misses::.cpu.inst         1602                       # number of overall misses
system.cpu.icache.overall_misses::total          1602                       # number of overall misses
system.cpu.icache.demand_miss_latency::.cpu.inst    124530000                       # number of demand (read+write) miss cycles
system.cpu.icache.demand_miss_latency::total    124530000                       # number of demand (read+write) miss cycles
system.cpu.icache.overall_miss_latency::.cpu.inst    124530000                       # number of overall miss cycles
system.cpu.icache.overall_miss_latency::total    124530000                       # number of overall miss cycles
system.cpu.icache.demand_accesses::.cpu.inst       642869                       # number of demand (read+write) accesses
system.cpu.icache.demand_accesses::total       642869                       # number of demand (read+write) accesses
system.cpu.icache.overall_accesses::.cpu.inst       642869                       # number of overall (read+write) accesses
system.cpu.icache.overall_accesses::total       642869                       # number of overall (read+write) accesses
system.cpu.icache.demand_miss_rate::.cpu.inst     0.002492                       # miss rate for demand accesses
system.cpu.icache.demand_miss_rate::total     0.002492                       # miss rate for demand accesses
system.cpu.icache.overall_miss_rate::.cpu.inst     0.002492                       # miss rate for overall accesses
system.cpu.icache.overall_miss_rate::total     0.002492                       # miss rate for overall accesses
system.cpu.icache.demand_avg_miss_latency::.cpu.inst 77734.082397                       # average overall miss latency
system.cpu.icache.demand_avg_miss_latency::total 77734.082397                       # average overall miss latency
system.cpu.icache.overall_avg_miss_latency::.cpu.inst 77734.082397                       # average overall miss latency
system.cpu.icache.overall_avg_miss_latency::total 77734.082397                       # average overall miss latency
system.cpu.icache.blocked_cycles::no_mshrs            0                       # number of cycles access was blocked
system.cpu.icache.blocked_cycles::no_targets            0                       # number of cycles access was blocked
system.cpu.icache.blocked::no_mshrs                 0                       # number of cycles access was blocked
system.cpu.icache.blocked::no_targets               0                       # number of cycles access was blocked
system.cpu.icache.avg_blocked_cycles::no_mshrs          nan                       # average number of cycles each access was blocked
system.cpu.icache.avg_blocked_cycles::no_targets          nan                       # average number of cycles each access was blocked
system.cpu.icache.writebacks::.writebacks          257                       # number of writebacks
system.cpu.icache.writebacks::total               257                       # number of writebacks
system.cpu.icache.demand_mshr_misses::.cpu.inst         1602                       # number of demand (read+write) MSHR misses
system.cpu.icache.demand_mshr_misses::total         1602                       # number of demand (read+write) MSHR misses
system.cpu.icache.overall_mshr_misses::.cpu.inst         1602                       # number of overall MSHR misses
system.cpu.icache.overall_mshr_misses::total         1602                       # number of overall MSHR misses
system.cpu.icache.demand_mshr_miss_latency::.cpu.inst    122928000                       # number of demand (read+write) MSHR miss cycles
system.cpu.icache.demand_mshr_miss_latency::total    122928000                       # number of demand (read+write) MSHR miss cycles
system.cpu.icache.overall_mshr_miss_latency::.cpu.inst    122928000                       # number of overall MSHR miss cycles
system.cpu.icache.overall_mshr_miss_latency::total    122928000                       # number of overall MSHR miss cycles
system.cpu.icache.demand_mshr_miss_rate::.cpu.inst     0.002492                       # mshr miss rate for demand accesses
system.cpu.icache.demand_mshr_miss_rate::total     0.002492                       # mshr miss rate for demand accesses
system.cpu.icache.overall_mshr_miss_rate::.cpu.inst     0.002492                       # mshr miss rate for overall accesses
system.cpu.icache.overall_mshr_miss_rate::total     0.002492                       # mshr miss rate for overall accesses
system.cpu.icache.demand_avg_mshr_miss_latency::.cpu.inst 76734.082397                       # average overall mshr miss latency
system.cpu.icache.demand_avg_mshr_miss_latency::total 76734.082397                       # average overall mshr miss latency
system.cpu.icache.overall_avg_mshr_miss_latency::.cpu.inst 76734.082397                       # average overall mshr miss latency
system.cpu.icache.overall_avg_mshr_miss_latency::total 76734.082397                       # average overall mshr miss latency
system.cpu.icache.replacements                    257                       # number of replacements
system.cpu.icache.ReadReq_hits::.cpu.inst       641267                       # number of ReadReq hits
system.cpu.icache.ReadReq_hits::total          641267                       # number of ReadReq hits
system.cpu.icache.ReadReq_misses::.cpu.inst         1602                       # number of ReadReq misses
system.cpu.icache.ReadReq_misses::total          1602                       # number of ReadReq misses
system.cpu.icache.ReadReq_miss_latency::.cpu.inst    124530000                       # number of ReadReq miss cycles
system.cpu.icache.ReadReq_miss_latency::total    124530000                       # number of ReadReq miss cycles
system.cpu.icache.ReadReq_accesses::.cpu.inst       642869                       # number of ReadReq accesses(hits+misses)
system.cpu.icache.ReadReq_accesses::total       642869                       # number of ReadReq accesses(hits+misses)
system.cpu.icache.ReadReq_miss_rate::.cpu.inst     0.002492                       # miss rate for ReadReq accesses
system.cpu.icache.ReadReq_miss_rate::total     0.002492                       # miss rate for ReadReq accesses
system.cpu.icache.ReadReq_avg_miss_latency::.cpu.inst 77734.082397                       # average ReadReq miss latency
system.cpu.icache.ReadReq_avg_miss_latency::total 77734.082397                       # average ReadReq miss latency
system.cpu.icache.ReadReq_mshr_misses::.cpu.inst         1602                       # number of ReadReq MSHR misses
system.cpu.icache.ReadReq_mshr_misses::total         1602                       # number of ReadReq MSHR misses
system.cpu.icache.ReadReq_mshr_miss_latency::.cpu.inst    122928000                       # number of ReadReq MSHR miss cycles
system.cpu.icache.ReadReq_mshr_miss_latency::total    122928000                       # number of ReadReq MSHR miss cycles
system.cpu.icache.ReadReq_mshr_miss_rate::.cpu.inst     0.002492                       # mshr miss rate for ReadReq accesses
system.cpu.icache.ReadReq_mshr_miss_rate::total     0.002492                       # mshr miss rate for ReadReq accesses
system.cpu.icache.ReadReq_avg_mshr_miss_latency::.cpu.inst 76734.082397                       # average ReadReq mshr miss latency
system.cpu.icache.ReadReq_avg_mshr_miss_latency::total 76734.082397                       # average ReadReq mshr miss latency
system.cpu.icache.power_state.pwrStateResidencyTicks::UNDEFINED   1204485500                       # Cumulative time (in ticks) in various power states
system.cpu.icache.tags.tagsinuse           921.193817                       # Cycle average of tags in use
system.cpu.icache.tags.total_refs              642869                       # Total number of references to valid blocks.
system.cpu.icache.tags.sampled_refs              1602                       # Sample count of references to valid blocks.
system.cpu.icache.tags.avg_refs            401.291511                       # Average number of references to valid blocks.
system.cpu.icache.tags.warmup_cycle             87500                       # Cycle when the warmup percentage was hit.
system.cpu.icache.tags.occ_blocks::.cpu.inst   921.193817                       # Average occupied blocks per requestor
system.cpu.icache.tags.occ_percent::.cpu.inst     0.449802                       # Average percentage of cache occupancy
system.cpu.icache.tags.occ_percent::total     0.449802                       # Average percentage of cache occupancy
system.cpu.icache.tags.occ_task_id_blocks::1024         1345                       # Occupied blocks per task id
system.cpu.icache.tags.age_task_id_blocks_1024::0           76                       # Occupied blocks per task id
system.cpu.icache.tags.age_task_id_blocks_1024::1          123                       # Occupied blocks per task id
system.cpu.icache.tags.age_task_id_blocks_1024::2          733                       # Occupied blocks per task id
system.cpu.icache.tags.age_task_id_blocks_1024::3          413                       # Occupied blocks per task id
system.cpu.icache.tags.occ_task_id_percent::1024     0.656738                       # Percentage of cache occupancy per task id
system.cpu.icache.tags.tag_accesses           1287340                       # Number of tag accesses
system.cpu.icache.tags.data_accesses          1287340                       # Number of data accesses
system.cpu.icache.tags.power_state.pwrStateResidencyTicks::UNDEFINED   1204485500                       # Cumulative time (in ticks) in various power states
system.cpu.interrupts.clk_domain.clock           8000                       # Clock period in ticks
system.cpu.itb.rdAccesses                           0                       # TLB accesses on read requests
system.cpu.itb.wrAccesses                      642947                       # TLB accesses on write requests
system.cpu.itb.rdMisses                             0                       # TLB misses on read requests
system.cpu.itb.wrMisses                           262                       # TLB misses on write requests
system.cpu.itb.walker.power_state.pwrStateResidencyTicks::UNDEFINED   1204485500                       # Cumulative time (in ticks) in various power states
system.cpu.itb_walker_cache.blocked_cycles::no_mshrs            0                       # number of cycles access was blocked
system.cpu.itb_walker_cache.blocked_cycles::no_targets            0                       # number of cycles access was blocked
system.cpu.itb_walker_cache.blocked::no_mshrs            0                       # number of cycles access was blocked
system.cpu.itb_walker_cache.blocked::no_targets            0                       # number of cycles access was blocked
system.cpu.itb_walker_cache.avg_blocked_cycles::no_mshrs          nan                       # average number of cycles each access was blocked
system.cpu.itb_walker_cache.avg_blocked_cycles::no_targets          nan                       # average number of cycles each access was blocked
system.cpu.itb_walker_cache.replacements            0                       # number of replacements
system.cpu.itb_walker_cache.power_state.pwrStateResidencyTicks::UNDEFINED   1204485500                       # Cumulative time (in ticks) in various power states
system.cpu.itb_walker_cache.tags.tagsinuse            0                       # Cycle average of tags in use
system.cpu.itb_walker_cache.tags.total_refs            0                       # Total number of references to valid blocks.
system.cpu.itb_walker_cache.tags.sampled_refs            0                       # Sample count of references to valid blocks.
system.cpu.itb_walker_cache.tags.avg_refs          nan                       # Average number of references to valid blocks.
system.cpu.itb_walker_cache.tags.warmup_cycle            0                       # Cycle when the warmup percentage was hit.
system.cpu.itb_walker_cache.tags.tag_accesses            0                       # Number of tag accesses
system.cpu.itb_walker_cache.tags.data_accesses            0                       # Number of data accesses
system.cpu.itb_walker_cache.tags.power_state.pwrStateResidencyTicks::UNDEFINED   1204485500                       # Cumulative time (in ticks) in various power states
system.cpu.power_state.pwrStateResidencyTicks::ON   1204485500                       # Cumulative time (in ticks) in various power states
system.cpu.thread_0.numInsts                        0                       # Number of Instructions committed
system.cpu.thread_0.numOps                          0                       # Number of Ops committed
system.cpu.thread_0.numMemRefs                      0                       # Number of Memory References
system.cpu_clk_domain.clock                       500                       # Clock period in ticks
system.cpu_voltage_domain.voltage                   1                       # Voltage in Volts
system.l2.demand_hits::.cpu.inst                   13                       # number of demand (read+write) hits
system.l2.demand_hits::.cpu.data                  139                       # number of demand (read+write) hits
system.l2.demand_hits::total                      152                       # number of demand (read+write) hits
system.l2.overall_hits::.cpu.inst                  13                       # number of overall hits
system.l2.overall_hits::.cpu.data                 139                       # number of overall hits
system.l2.overall_hits::total                     152                       # number of overall hits
system.l2.demand_misses::.cpu.inst               1589                       # number of demand (read+write) misses
system.l2.demand_misses::.cpu.data               2844                       # number of demand (read+write) misses
system.l2.demand_misses::total                   4433                       # number of demand (read+write) misses
system.l2.overall_misses::.cpu.inst              1589                       # number of overall misses
system.l2.overall_misses::.cpu.data              2844                       # number of overall misses
system.l2.overall_misses::total                  4433                       # number of overall misses
system.l2.demand_miss_latency::.cpu.inst    120386000                       # number of demand (read+write) miss cycles
system.l2.demand_miss_latency::.cpu.data    218274000                       # number of demand (read+write) miss cycles
system.l2.demand_miss_latency::total        338660000                       # number of demand (read+write) miss cycles
system.l2.overall_miss_latency::.cpu.inst    120386000                       # number of overall miss cycles
system.l2.overall_miss_latency::.cpu.data    218274000                       # number of overall miss cycles
system.l2.overall_miss_latency::total       338660000                       # number of overall miss cycles
system.l2.demand_accesses::.cpu.inst             1602                       # number of demand (read+write) accesses
system.l2.demand_accesses::.cpu.data             2983                       # number of demand (read+write) accesses
system.l2.demand_accesses::total                 4585                       # number of demand (read+write) accesses
system.l2.overall_accesses::.cpu.inst            1602                       # number of overall (read+write) accesses
system.l2.overall_accesses::.cpu.data            2983                       # number of overall (read+write) accesses
system.l2.overall_accesses::total                4585                       # number of overall (read+write) accesses
system.l2.demand_miss_rate::.cpu.inst        0.991885                       # miss rate for demand accesses
system.l2.demand_miss_rate::.cpu.data        0.953403                       # miss rate for demand accesses
system.l2.demand_miss_rate::total            0.966848                       # miss rate for demand accesses
system.l2.overall_miss_rate::.cpu.inst       0.991885                       # miss rate for overall accesses
system.l2.overall_miss_rate::.cpu.data       0.953403                       # miss rate for overall accesses
system.l2.overall_miss_rate::total           0.966848                       # miss rate for overall accesses
system.l2.demand_avg_miss_latency::.cpu.inst 75762.114537                       # average overall miss latency
system.l2.demand_avg_miss_latency::.cpu.data 76748.945148                       # average overall miss latency
system.l2.demand_avg_miss_latency::total 76395.217686                       # average overall miss latency
system.l2.overall_avg_miss_latency::.cpu.inst 75762.114537                       # average overall miss latency
system.l2.overall_avg_miss_latency::.cpu.data 76748.945148                       # average overall miss latency
system.l2.overall_avg_miss_latency::total 76395.217686                       # average overall miss latency
system.l2.blocked_cycles::no_mshrs                  0                       # number of cycles access was blocked
system.l2.blocked_cycles::no_targets                0                       # number of cycles access was blocked
system.l2.blocked::no_mshrs                         0                       # number of cycles access was blocked
system.l2.blocked::no_targets                       0                       # number of cycles access was blocked
system.l2.avg_blocked_cycles::no_mshrs            nan                       # average number of cycles each access was blocked
system.l2.avg_blocked_cycles::no_targets          nan                       # average number of cycles each access was blocked
system.l2.writebacks::.writebacks                  92                       # number of writebacks
system.l2.writebacks::total                        92                       # number of writebacks
system.l2.demand_mshr_misses::.cpu.inst          1589                       # number of demand (read+write) MSHR misses
system.l2.demand_mshr_misses::.cpu.data          2844                       # number of demand (read+write) MSHR misses
system.l2.demand_mshr_misses::total              4433                       # number of demand (read+write) MSHR misses
system.l2.overall_mshr_misses::.cpu.inst         1589                       # number of overall MSHR misses
system.l2.overall_mshr_misses::.cpu.data         2844                       # number of overall MSHR misses
system.l2.overall_mshr_misses::total             4433                       # number of overall MSHR misses
system.l2.demand_mshr_miss_latency::.cpu.inst    104496000                       # number of demand (read+write) MSHR miss cycles
system.l2.demand_mshr_miss_latency::.cpu.data    189834000                       # number of demand (read+write) MSHR miss cycles
system.l2.demand_mshr_miss_latency::total    294330000                       # number of demand (read+write) MSHR miss cycles
system.l2.overall_mshr_miss_latency::.cpu.inst    104496000                       # number of overall MSHR miss cycles
system.l2.overall_mshr_miss_latency::.cpu.data    189834000                       # number of overall MSHR miss cycles
system.l2.overall_mshr_miss_latency::total    294330000                       # number of overall MSHR miss cycles
system.l2.demand_mshr_miss_rate::.cpu.inst     0.991885                       # mshr miss rate for demand accesses
system.l2.demand_mshr_miss_rate::.cpu.data     0.953403                       # mshr miss rate for demand accesses
system.l2.demand_mshr_miss_rate::total       0.966848                       # mshr miss rate for demand accesses
system.l2.overall_mshr_miss_rate::.cpu.inst     0.991885                       # mshr miss rate for overall accesses
system.l2.overall_mshr_miss_rate::.cpu.data     0.953403                       # mshr miss rate for overall accesses
system.l2.overall_mshr_miss_rate::total      0.966848                       # mshr miss rate for overall accesses
system.l2.demand_avg_mshr_miss_latency::.cpu.inst 65762.114537                       # average overall mshr miss latency
system.l2.demand_avg_mshr_miss_latency::.cpu.data 66748.945148                       # average overall mshr miss latency
system.l2.demand_avg_mshr_miss_latency::total 66395.217686                       # average overall mshr miss latency
system.l2.overall_avg_mshr_miss_latency::.cpu.inst 65762.114537                       # average overall mshr miss latency
system.l2.overall_avg_mshr_miss_latency::.cpu.data 66748.945148                       # average overall mshr miss latency
system.l2.overall_avg_mshr_miss_latency::total 66395.217686                       # average overall mshr miss latency
system.l2.replacements                           3008                       # number of replacements
system.l2.WritebackDirty_hits::.writebacks          387                       # number of WritebackDirty hits
system.l2.WritebackDirty_hits::total              387                       # number of WritebackDirty hits
system.l2.WritebackDirty_accesses::.writebacks          387                       # number of WritebackDirty accesses(hits+misses)
system.l2.WritebackDirty_accesses::total          387                       # number of WritebackDirty accesses(hits+misses)
system.l2.WritebackClean_hits::.writebacks          257                       # number of WritebackClean hits
system.l2.WritebackClean_hits::total              257                       # number of WritebackClean hits
system.l2.WritebackClean_accesses::.writebacks          257                       # number of WritebackClean accesses(hits+misses)
system.l2.WritebackClean_accesses::total          257                       # number of WritebackClean accesses(hits+misses)
system.l2.CleanEvict_mshr_misses::.writebacks          551                       # number of CleanEvict MSHR misses
system.l2.CleanEvict_mshr_misses::total           551                       # number of CleanEvict MSHR misses
system.l2.CleanEvict_mshr_miss_rate::.writebacks          inf                       # mshr miss rate for CleanEvict accesses
system.l2.CleanEvict_mshr_miss_rate::total          inf                       # mshr miss rate for CleanEvict accesses
system.l2.ReadExReq_hits::.cpu.data                36                       # number of ReadExReq hits
system.l2.ReadExReq_hits::total                    36                       # number of ReadExReq hits
system.l2.ReadExReq_misses::.cpu.data             611                       # number of ReadExReq misses
system.l2.ReadExReq_misses::total                 611                       # number of ReadExReq misses
system.l2.ReadExReq_miss_latency::.cpu.data     45177000                       # number of ReadExReq miss cycles
system.l2.ReadExReq_miss_latency::total      45177000                       # number of ReadExReq miss cycles
system.l2.ReadExReq_accesses::.cpu.data           647                       # number of ReadExReq accesses(hits+misses)
system.l2.ReadExReq_accesses::total               647                       # number of ReadExReq accesses(hits+misses)
system.l2.ReadExReq_miss_rate::.cpu.data     0.944359                       # miss rate for ReadExReq accesses
system.l2.ReadExReq_miss_rate::total         0.944359                       # miss rate for ReadExReq accesses
system.l2.ReadExReq_avg_miss_latency::.cpu.data 73939.443535                       # average ReadExReq miss latency
system.l2.ReadExReq_avg_miss_latency::total 73939.443535                       # average ReadExReq miss latency
system.l2.ReadExReq_mshr_misses::.cpu.data          611                       # number of ReadExReq MSHR misses
system.l2.ReadExReq_mshr_misses::total            611                       # number of ReadExReq MSHR misses
system.l2.ReadExReq_mshr_miss_latency::.cpu.data     39067000                       # number of ReadExReq MSHR miss cycles
system.l2.ReadExReq_mshr_miss_latency::total     39067000                       # number of ReadExReq MSHR miss cycles
system.l2.ReadExReq_mshr_miss_rate::.cpu.data     0.944359                       # mshr miss rate for ReadExReq accesses
system.l2.ReadExReq_mshr_miss_rate::total     0.944359                       # mshr miss rate for ReadExReq accesses
system.l2.ReadExReq_avg_mshr_miss_latency::.cpu.data 63939.443535                       # average ReadExReq mshr miss latency
system.l2.ReadExReq_avg_mshr_miss_latency::total 63939.443535                       # average ReadExReq mshr miss latency
system.l2.ReadCleanReq_hits::.cpu.inst             13                       # number of ReadCleanReq hits
system.l2.ReadCleanReq_hits::total                 13                       # number of ReadCleanReq hits
system.l2.ReadCleanReq_misses::.cpu.inst         1589                       # number of ReadCleanReq misses
system.l2.ReadCleanReq_misses::total             1589                       # number of ReadCleanReq misses
system.l2.ReadCleanReq_miss_latency::.cpu.inst    120386000                       # number of ReadCleanReq miss cycles
system.l2.ReadCleanReq_miss_latency::total    120386000                       # number of ReadCleanReq miss cycles
system.l2.ReadCleanReq_accesses::.cpu.inst         1602                       # number of ReadCleanReq accesses(hits+misses)
system.l2.ReadCleanReq_accesses::total           1602                       # number of ReadCleanReq accesses(hits+misses)
system.l2.ReadCleanReq_miss_rate::.cpu.inst     0.991885                       # miss rate for ReadCleanReq accesses
system.l2.ReadCleanReq_miss_rate::total      0.991885                       # miss rate for ReadCleanReq accesses
system.l2.ReadCleanReq_avg_miss_latency::.cpu.inst 75762.114537                       # average ReadCleanReq miss latency
system.l2.ReadCleanReq_avg_miss_latency::total 75762.114537                       # average ReadCleanReq miss latency
system.l2.ReadCleanReq_mshr_misses::.cpu.inst         1589                       # number of ReadCleanReq MSHR misses
system.l2.ReadCleanReq_mshr_misses::total         1589                       # number of ReadCleanReq MSHR misses
system.l2.ReadCleanReq_mshr_miss_latency::.cpu.inst    104496000                       # number of ReadCleanReq MSHR miss cycles
system.l2.ReadCleanReq_mshr_miss_latency::total    104496000                       # number of ReadCleanReq MSHR miss cycles
system.l2.ReadCleanReq_mshr_miss_rate::.cpu.inst     0.991885                       # mshr miss rate for ReadCleanReq accesses
system.l2.ReadCleanReq_mshr_miss_rate::total     0.991885                       # mshr miss rate for ReadCleanReq accesses
system.l2.ReadCleanReq_avg_mshr_miss_latency::.cpu.inst 65762.114537                       # average ReadCleanReq mshr miss latency
system.l2.ReadCleanReq_avg_mshr_miss_latency::total 65762.114537                       # average ReadCleanReq mshr miss latency
system.l2.ReadSharedReq_hits::.cpu.data           103                       # number of ReadSharedReq hits
system.l2.ReadSharedReq_hits::total               103                       # number of ReadSharedReq hits
system.l2.ReadSharedReq_misses::.cpu.data         2233                       # number of ReadSharedReq misses
system.l2.ReadSharedReq_misses::total            2233                       # number of ReadSharedReq misses
system.l2.ReadSharedReq_miss_latency::.cpu.data    173097000                       # number of ReadSharedReq miss cycles
system.l2.ReadSharedReq_miss_latency::total    173097000                       # number of ReadSharedReq miss cycles
system.l2.ReadSharedReq_accesses::.cpu.data         2336                       # number of ReadSharedReq accesses(hits+misses)
system.l2.ReadSharedReq_accesses::total          2336                       # number of ReadSharedReq accesses(hits+misses)
system.l2.ReadSharedReq_miss_rate::.cpu.data     0.955908                       # miss rate for ReadSharedReq accesses
system.l2.ReadSharedReq_miss_rate::total     0.955908                       # miss rate for ReadSharedReq accesses
system.l2.ReadSharedReq_avg_miss_latency::.cpu.data 77517.689207                       # average ReadSharedReq miss latency
system.l2.ReadSharedReq_avg_miss_latency::total 77517.689207                       # average ReadSharedReq miss latency
system.l2.ReadSharedReq_mshr_misses::.cpu.data         2233                       # number of ReadSharedReq MSHR misses
system.l2.ReadSharedReq_mshr_misses::total         2233                       # number of ReadSharedReq MSHR misses
system.l2.ReadSharedReq_mshr_miss_latency::.cpu.data    150767000                       # number of ReadSharedReq MSHR miss cycles
system.l2.ReadSharedReq_mshr_miss_latency::total    150767000                       # number of ReadSharedReq MSHR miss cycles
system.l2.ReadSharedReq_mshr_miss_rate::.cpu.data     0.955908                       # mshr miss rate for ReadSharedReq accesses
system.l2.ReadSharedReq_mshr_miss_rate::total     0.955908                       # mshr miss rate for ReadSharedReq accesses
system.l2.ReadSharedReq_avg_mshr_miss_latency::.cpu.data 67517.689207                       # average ReadSharedReq mshr miss latency
system.l2.ReadSharedReq_avg_mshr_miss_latency::total 67517.689207                       # average ReadSharedReq mshr miss latency
system.l2.power_state.pwrStateResidencyTicks::UNDEFINED   1204485500                       # Cumulative time (in ticks) in various power states
system.l2.tags.tagsinuse                  1754.610502                       # Cycle average of tags in use
system.l2.tags.total_refs                        5297                       # Total number of references to valid blocks.
system.l2.tags.sampled_refs                      5042                       # Sample count of references to valid blocks.
system.l2.tags.avg_refs                      1.050575                       # Average number of references to valid blocks.
system.l2.tags.warmup_cycle                     77000                       # Cycle when the warmup percentage was hit.
system.l2.tags.occ_blocks::.writebacks     222.075099                       # Average occupied blocks per requestor
system.l2.tags.occ_blocks::.cpu.inst       465.722288                       # Average occupied blocks per requestor
system.l2.tags.occ_blocks::.cpu.data      1066.813114                       # Average occupied blocks per requestor
system.l2.tags.occ_percent::.writebacks      0.108435                       # Average percentage of cache occupancy
system.l2.tags.occ_percent::.cpu.inst        0.227403                       # Average percentage of cache occupancy
system.l2.tags.occ_percent::.cpu.data        0.520905                       # Average percentage of cache occupancy
system.l2.tags.occ_percent::total            0.856743                       # Average percentage of cache occupancy
system.l2.tags.occ_task_id_blocks::1024          2034                       # Occupied blocks per task id
system.l2.tags.age_task_id_blocks_1024::0          107                       # Occupied blocks per task id
system.l2.tags.age_task_id_blocks_1024::1          182                       # Occupied blocks per task id
system.l2.tags.age_task_id_blocks_1024::2         1526                       # Occupied blocks per task id
system.l2.tags.age_task_id_blocks_1024::3          219                       # Occupied blocks per task id
system.l2.tags.occ_task_id_percent::1024     0.993164                       # Percentage of cache occupancy per task id
system.l2.tags.tag_accesses                     16738                       # Number of tag accesses
system.l2.tags.data_accesses                    16738                       # Number of data accesses
system.l2.tags.power_state.pwrStateResidencyTicks::UNDEFINED   1204485500                       # Cumulative time (in ticks) in various power states
system.mem_ctrls.avgPriority_.writebacks::samples        92.00                       # Average QoS priority value for accepted requests
system.mem_ctrls.avgPriority_.cpu.inst::samples      1589.00                       # Average QoS priority value for accepted requests
system.mem_ctrls.avgPriority_.cpu.data::samples      2839.00                       # Average QoS priority value for accepted requests
system.mem_ctrls.priorityMinLatency      0.000000018750                       # per QoS priority minimum request to response latency (s)
system.mem_ctrls.priorityMaxLatency      0.001168211750                       # per QoS priority maximum request to response latency (s)
system.mem_ctrls.numReadWriteTurnArounds            4                       # Number of turnarounds from READ to WRITE
system.mem_ctrls.numWriteReadTurnArounds            4                       # Number of turnarounds from WRITE to READ
system.mem_ctrls.numStayReadState                9252                       # Number of times bus staying in READ state
system.mem_ctrls.numStayWriteState                 61                       # Number of times bus staying in WRITE state
system.mem_ctrls.readReqs                        4433                       # Number of read requests accepted
system.mem_ctrls.writeReqs                         92                       # Number of write requests accepted
system.mem_ctrls.readBursts                      4433                       # Number of controller read bursts, including those serviced by the write queue
system.mem_ctrls.writeBursts                       92                       # Number of controller write bursts, including those merged in the write queue
system.mem_ctrls.servicedByWrQ                      5                       # Number of controller read bursts serviced by the write queue
system.mem_ctrls.mergedWrBursts                     0                       # Number of controller write bursts merged with an existing one
system.mem_ctrls.neitherReadNorWriteReqs            0                       # Number of requests that are neither read nor write
system.mem_ctrls.avgRdQLen                       1.00                       # Average read queue length when enqueuing
system.mem_ctrls.avgWrQLen                      16.88                       # Average write queue length when enqueuing
system.mem_ctrls.numRdRetry                         0                       # Number of times read queue was full causing retry
system.mem_ctrls.numWrRetry                         0                       # Number of times write queue was full causing retry
system.mem_ctrls.readPktSize::0                     0                       # Read request sizes (log2)
system.mem_ctrls.readPktSize::1                     0                       # Read request sizes (log2)
system.mem_ctrls.readPktSize::2                     0                       # Read request sizes (log2)
system.mem_ctrls.readPktSize::3                     0                       # Read request sizes (log2)
system.mem_ctrls.readPktSize::4                     0                       # Read request sizes (log2)
system.mem_ctrls.readPktSize::5                     0                       # Read request sizes (log2)
system.mem_ctrls.readPktSize::6                  4433                       # Read request sizes (log2)
system.mem_ctrls.writePktSize::0                    0                       # Write request sizes (log2)
system.mem_ctrls.writePktSize::1                    0                       # Write request sizes (log2)
system.mem_ctrls.writePktSize::2                    0                       # Write request sizes (log2)
system.mem_ctrls.writePktSize::3                    0                       # Write request sizes (log2)
system.mem_ctrls.writePktSize::4                    0                       # Write request sizes (log2)
system.mem_ctrls.writePktSize::5                    0                       # Write request sizes (log2)
system.mem_ctrls.writePktSize::6                   92                       # Write request sizes (log2)
system.mem_ctrls.rdQLenPdf::0                    4428                       # What read queue length does an incoming req see
system.mem_ctrls.rdQLenPdf::1                       0                       # What read queue length does an incoming req see
system.mem_ctrls.rdQLenPdf::2                       0                       # What read queue length does an incoming req see
system.mem_ctrls.rdQLenPdf::3                       0                       # What read queue length does an incoming req see
system.mem_ctrls.rdQLenPdf::4                       0                       # What read queue length does an incoming req see
system.mem_ctrls.rdQLenPdf::5                       0                       # What read queue length does an incoming req see
system.mem_ctrls.rdQLenPdf::6                       0                       # What read queue length does an incoming req see
system.mem_ctrls.rdQLenPdf::7                       0                       # What read queue length does an incoming req see
system.mem_ctrls.rdQLenPdf::8                       0                       # What read queue length does an incoming req see
system.mem_ctrls.rdQLenPdf::9                       0                       # What read queue length does an incoming req see
system.mem_ctrls.rdQLenPdf::10                      0                       # What read queue length does an incoming req see
system.mem_ctrls.rdQLenPdf::11                      0                       # What read queue length does an incoming req see
system.mem_ctrls.rdQLenPdf::12                      0                       # What read queue length does an incoming req see
system.mem_ctrls.rdQLenPdf::13                      0                       # What read queue length does an incoming req see
system.mem_ctrls.rdQLenPdf::14                      0                       # What read queue length does an incoming req see
system.mem_ctrls.rdQLenPdf::15                      0                       # What read queue length does an incoming req see
system.mem_ctrls.rdQLenPdf::16                      0                       # What read queue length does an incoming req see
system.mem_ctrls.rdQLenPdf::17                      0                       # What read queue length does an incoming req see
system.mem_ctrls.rdQLenPdf::18                      0                       # What read queue length does an incoming req see
system.mem_ctrls.rdQLenPdf::19                      0                       # What read queue length does an incoming req see
system.mem_ctrls.rdQLenPdf::20                      0                       # What read queue length does an incoming req see
system.mem_ctrls.rdQLenPdf::21                      0                       # What read queue length does an incoming req see
system.mem_ctrls.rdQLenPdf::22                      0                       # What read queue length does an incoming req see
system.mem_ctrls.rdQLenPdf::23                      0                       # What read queue length does an incoming req see
system.mem_ctrls.rdQLenPdf::24                      0                       # What read queue length does an incoming req see
system.mem_ctrls.rdQLenPdf::25                      0                       # What read queue length does an incoming req see
system.mem_ctrls.rdQLenPdf::26                      0                       # What read queue length does an incoming req see
system.mem_ctrls.rdQLenPdf::27                      0                       # What read queue length does an incoming req see
system.mem_ctrls.rdQLenPdf::28                      0                       # What read queue length does an incoming req see
system.mem_ctrls.rdQLenPdf::29                      0                       # What read queue length does an incoming req see
system.mem_ctrls.rdQLenPdf::30                      0                       # What read queue length does an incoming req see
system.mem_ctrls.rdQLenPdf::31                      0                       # What read queue length does an incoming req see
system.mem_ctrls.wrQLenPdf::0                       1                       # What write queue length does an incoming req see
system.mem_ctrls.wrQLenPdf::1                       1                       # What write queue length does an incoming req see
system.mem_ctrls.wrQLenPdf::2                       1                       # What write queue length does an incoming req see
system.mem_ctrls.wrQLenPdf::3                       1                       # What write queue length does an incoming req see
system.mem_ctrls.wrQLenPdf::4                       1                       # What write queue length does an incoming req see
system.mem_ctrls.wrQLenPdf::5                       1                       # What write queue length does an incoming req see
system.mem_ctrls.wrQLenPdf::6                       1                       # What write queue length does an incoming req see
system.mem_ctrls.wrQLenPdf::7                       1                       # What write queue length does an incoming req see
system.mem_ctrls.wrQLenPdf::8                       1                       # What write queue length does an incoming req see
system.mem_ctrls.wrQLenPdf::9                       1                       # What write queue length does an incoming req see
system.mem_ctrls.wrQLenPdf::10                      1                       # What write queue length does an incoming req see
system.mem_ctrls.wrQLenPdf::11                      1                       # What write queue length does an incoming req see
system.mem_ctrls.wrQLenPdf::12                      1                       # What write queue length does an incoming req see
system.mem_ctrls.wrQLenPdf::13                      1                       # What write queue length does an incoming req see
system.mem_ctrls.wrQLenPdf::14                      1                       # What write queue length does an incoming req see
system.mem_ctrls.wrQLenPdf::15                      1                       # What write queue length does an incoming req see
system.mem_ctrls.wrQLenPdf::16                      2                       # What write queue length does an incoming req see
system.mem_ctrls.wrQLenPdf::17                      5                       # What write queue length does an incoming req see
system.mem_ctrls.wrQLenPdf::18                      5                       # What write queue length does an incoming req see
system.mem_ctrls.wrQLenPdf::19                      5                       # What write queue length does an incoming req see
system.mem_ctrls.wrQLenPdf::20                      5                       # What write queue length does an incoming req see
system.mem_ctrls.wrQLenPdf::21                      5                       # What write queue length does an incoming req see
system.mem_ctrls.wrQLenPdf::22                      5                       # What write queue length does an incoming req see
system.mem_ctrls.wrQLenPdf::23                      5                       # What write queue length does an incoming req see
system.mem_ctrls.wrQLenPdf::24                      5                       # What write queue length does an incoming req see
system.mem_ctrls.wrQLenPdf::25                      5                       # What write queue length does an incoming req see
system.mem_ctrls.wrQLenPdf::26                      5                       # What write queue length does an incoming req see
system.mem_ctrls.wrQLenPdf::27                      4                       # What write queue length does an incoming req see
system.mem_ctrls.wrQLenPdf::28                      4                       # What write queue length does an incoming req see
system.mem_ctrls.wrQLenPdf::29                      4                       # What write queue length does an incoming req see
system.mem_ctrls.wrQLenPdf::30                      4                       # What write queue length does an incoming req see
system.mem_ctrls.wrQLenPdf::31                      4                       # What write queue length does an incoming req see
system.mem_ctrls.wrQLenPdf::32                      4                       # What write queue length does an incoming req see
system.mem_ctrls.wrQLenPdf::33                      0                       # What write queue length does an incoming req see
system.mem_ctrls.wrQLenPdf::34                      0                       # What write queue length does an incoming req see
system.mem_ctrls.wrQLenPdf::35                      0                       # What write queue length does an incoming req see
system.mem_ctrls.wrQLenPdf::36                      0                       # What write queue length does an incoming req see
system.mem_ctrls.wrQLenPdf::37                      0                       # What write queue length does an incoming req see
system.mem_ctrls.wrQLenPdf::38                      0                       # What write queue length does an incoming req see
system.mem_ctrls.wrQLenPdf::39                      0                       # What write queue length does an incoming req see
system.mem_ctrls.wrQLenPdf::40                      0                       # What write queue length does an incoming req see
system.mem_ctrls.wrQLenPdf::41                      0                       # What write queue length does an incoming req see
system.mem_ctrls.wrQLenPdf::42                      0                       # What write queue length does an incoming req see
system.mem_ctrls.wrQLenPdf::43                      0                       # What write queue length does an incoming req see
system.mem_ctrls.wrQLenPdf::44                      0                       # What write queue length does an incoming req see
system.mem_ctrls.wrQLenPdf::45                      0                       # What write queue length does an incoming req see
system.mem_ctrls.wrQLenPdf::46                      0                       # What write queue length does an incoming req see
system.mem_ctrls.wrQLenPdf::47                      0                       # What write queue length does an incoming req see
system.mem_ctrls.wrQLenPdf::48                      0                       # What write queue length does an incoming req see
system.mem_ctrls.wrQLenPdf::49                      0                       # What write queue length does an incoming req see
system.mem_ctrls.wrQLenPdf::50                      0                       # What write queue length does an incoming req see
system.mem_ctrls.wrQLenPdf::51                      0                       # What write queue length does an incoming req see
system.mem_ctrls.wrQLenPdf::52                      0                       # What write queue length does an incoming req see
system.mem_ctrls.wrQLenPdf::53                      0                       # What write queue length does an incoming req see
system.mem_ctrls.wrQLenPdf::54                      0                       # What write queue length does an incoming req see
system.mem_ctrls.wrQLenPdf::55                      0                       # What write queue length does an incoming req see
system.mem_ctrls.wrQLenPdf::56                      0                       # What write queue length does an incoming req see
system.mem_ctrls.wrQLenPdf::57                      0                       # What write queue length does an incoming req see
system.mem_ctrls.wrQLenPdf::58                      0                       # What write queue length does an incoming req see
system.mem_ctrls.wrQLenPdf::59                      0                       # What write queue length does an incoming req see
system.mem_ctrls.wrQLenPdf::60                      0                       # What write queue length does an incoming req see
system.mem_ctrls.wrQLenPdf::61                      0                       # What write queue length does an incoming req see
system.mem_ctrls.wrQLenPdf::62                      0                       # What write queue length does an incoming req see
system.mem_ctrls.wrQLenPdf::63                      0                       # What write queue length does an incoming req see
system.mem_ctrls.rdPerTurnAround::samples            4                       # Reads before turning the bus around for writes
system.mem_ctrls.rdPerTurnAround::mean    1071.500000                       # Reads before turning the bus around for writes
system.mem_ctrls.rdPerTurnAround::gmean    471.917671                       # Reads before turning the bus around for writes
system.mem_ctrls.rdPerTurnAround::stdev   1659.194282                       # Reads before turning the bus around for writes
system.mem_ctrls.rdPerTurnAround::128-255            2     50.00%     50.00% # Reads before turning the bus around for writes
system.mem_ctrls.rdPerTurnAround::256-383            1     25.00%     75.00% # Reads before turning the bus around for writes
system.mem_ctrls.rdPerTurnAround::3456-3583            1     25.00%    100.00% # Reads before turning the bus around for writes
system.mem_ctrls.rdPerTurnAround::total             4                       # Reads before turning the bus around for writes
system.mem_ctrls.wrPerTurnAround::samples            4                       # Writes before turning the bus around for reads
system.mem_ctrls.wrPerTurnAround::mean      16.250000                       # Writes before turning the bus around for reads
system.mem_ctrls.wrPerTurnAround::gmean     16.244345                       # Writes before turning the bus around for reads
system.mem_ctrls.wrPerTurnAround::stdev      0.500000                       # Writes before turning the bus around for reads
system.mem_ctrls.wrPerTurnAround::16                3     75.00%     75.00% # Writes before turning the bus around for reads
system.mem_ctrls.wrPerTurnAround::17                1     25.00%    100.00% # Writes before turning the bus around for reads
system.mem_ctrls.wrPerTurnAround::total             4                       # Writes before turning the bus around for reads
system.mem_ctrls.bytesReadWrQ                     320                       # Total number of bytes read from write queue
system.mem_ctrls.bytesReadSys                  283712                       # Total read bytes from the system interface side
system.mem_ctrls.bytesWrittenSys                 5888                       # Total written bytes from the system interface side
system.mem_ctrls.avgRdBWSys                    235.55                       # Average system read bandwidth in MiByte/s
system.mem_ctrls.avgWrBWSys                      4.89                       # Average system write bandwidth in MiByte/s
system.mem_ctrls.totGap                    1204411500                       # Total gap between requests
system.mem_ctrls.avgGap                     266168.29                       # Average gap between requests
system.mem_ctrls.requestorReadBytes::.cpu.inst       101696                       # Per-requestor bytes read from memory
system.mem_ctrls.requestorReadBytes::.cpu.data       181696                       # Per-requestor bytes read from memory
system.mem_ctrls.requestorWriteBytes::.writebacks         4160                       # Per-requestor bytes write to memory
system.mem_ctrls.requestorReadRate::.cpu.inst 84431070.361577615142                       # Per-requestor bytes read from memory rate (Bytes/sec)
system.mem_ctrls.requestorReadRate::.cpu.data 150849470.583082973957                       # Per-requestor bytes read from memory rate (Bytes/sec)
[...]
system.mem_ctrls.dram.bw_total::.cpu.data    151115144                       # Total bandwidth to/from this memory (bytes/s)
system.mem_ctrls.dram.bw_total::total       240434609                       # Total bandwidth to/from this memory (bytes/s)
system.mem_ctrls.dram.readBursts                 4428                       # Number of DRAM read bursts
system.mem_ctrls.dram.writeBursts                  65                       # Number of DRAM write bursts
system.mem_ctrls.dram.perBankRdBursts::0          358                       # Per bank write bursts
system.mem_ctrls.dram.perBankRdBursts::1          247                       # Per bank write bursts
system.mem_ctrls.dram.perBankRdBursts::2          251                       # Per bank write bursts
system.mem_ctrls.dram.perBankRdBursts::3          292                       # Per bank write bursts
system.mem_ctrls.dram.perBankRdBursts::4          300                       # Per bank write bursts
system.mem_ctrls.dram.perBankRdBursts::5          202                       # Per bank write bursts
system.mem_ctrls.dram.perBankRdBursts::6          294                       # Per bank write bursts
system.mem_ctrls.dram.perBankRdBursts::7          220                       # Per bank write bursts
system.mem_ctrls.dram.perBankRdBursts::8          180                       # Per bank write bursts
system.mem_ctrls.dram.perBankRdBursts::9          390                       # Per bank write bursts
system.mem_ctrls.dram.perBankRdBursts::10          461                       # Per bank write bursts
system.mem_ctrls.dram.perBankRdBursts::11          271                       # Per bank write bursts
system.mem_ctrls.dram.perBankRdBursts::12          272                       # Per bank write bursts
system.mem_ctrls.dram.perBankRdBursts::13          251                       # Per bank write bursts
system.mem_ctrls.dram.perBankRdBursts::14          179                       # Per bank write bursts
system.mem_ctrls.dram.perBankRdBursts::15          260                       # Per bank write bursts
system.mem_ctrls.dram.perBankWrBursts::0            1                       # Per bank write bursts
system.mem_ctrls.dram.perBankWrBursts::1            0                       # Per bank write bursts
system.mem_ctrls.dram.perBankWrBursts::2            1                       # Per bank write bursts
system.mem_ctrls.dram.perBankWrBursts::3            0                       # Per bank write bursts
system.mem_ctrls.dram.perBankWrBursts::4            3                       # Per bank write bursts
system.mem_ctrls.dram.perBankWrBursts::5            1                       # Per bank write bursts
system.mem_ctrls.dram.perBankWrBursts::6            0                       # Per bank write bursts
system.mem_ctrls.dram.perBankWrBursts::7            0                       # Per bank write bursts
system.mem_ctrls.dram.perBankWrBursts::8            2                       # Per bank write bursts
system.mem_ctrls.dram.perBankWrBursts::9           24                       # Per bank write bursts
system.mem_ctrls.dram.perBankWrBursts::10           12                       # Per bank write bursts
system.mem_ctrls.dram.perBankWrBursts::11            8                       # Per bank write bursts
system.mem_ctrls.dram.perBankWrBursts::12            0                       # Per bank write bursts
system.mem_ctrls.dram.perBankWrBursts::13            1                       # Per bank write bursts
system.mem_ctrls.dram.perBankWrBursts::14            0                       # Per bank write bursts
system.mem_ctrls.dram.perBankWrBursts::15           12                       # Per bank write bursts
system.mem_ctrls.dram.totQLat                30414500                       # Total ticks spent queuing
system.mem_ctrls.dram.totBusLat              22140000                       # Total ticks spent in databus transfers
system.mem_ctrls.dram.totMemAccLat          113439500                       # Total ticks spent from burst creation until serviced by the DRAM
system.mem_ctrls.dram.avgQLat                 6868.68                       # Average queueing delay per DRAM burst
system.mem_ctrls.dram.avgBusLat               5000.00                       # Average bus latency per DRAM burst
system.mem_ctrls.dram.avgMemAccLat           25618.68                       # Average memory access latency per DRAM burst
system.mem_ctrls.dram.readRowHits                3485                       # Number of row buffer hits during reads
system.mem_ctrls.dram.writeRowHits                 51                       # Number of row buffer hits during writes
system.mem_ctrls.dram.readRowHitRate            78.70                       # Row buffer hit rate for reads
system.mem_ctrls.dram.writeRowHitRate           78.46                       # Row buffer hit rate for writes
system.mem_ctrls.dram.bytesPerActivate::samples          948                       # Bytes accessed per row activation
system.mem_ctrls.dram.bytesPerActivate::mean   301.097046                       # Bytes accessed per row activation
system.mem_ctrls.dram.bytesPerActivate::gmean   184.740583                       # Bytes accessed per row activation
system.mem_ctrls.dram.bytesPerActivate::stdev   314.026094                       # Bytes accessed per row activation
system.mem_ctrls.dram.bytesPerActivate::0-127          318     33.54%     33.54% # Bytes accessed per row activation
system.mem_ctrls.dram.bytesPerActivate::128-255          261     27.53%     61.08% # Bytes accessed per row activation
system.mem_ctrls.dram.bytesPerActivate::256-383          108     11.39%     72.47% # Bytes accessed per row activation
system.mem_ctrls.dram.bytesPerActivate::384-511           67      7.07%     79.54% # Bytes accessed per row activation
system.mem_ctrls.dram.bytesPerActivate::512-639           38      4.01%     83.54% # Bytes accessed per row activation
system.mem_ctrls.dram.bytesPerActivate::640-767           21      2.22%     85.76% # Bytes accessed per row activation
system.mem_ctrls.dram.bytesPerActivate::768-895           22      2.32%     88.08% # Bytes accessed per row activation
system.mem_ctrls.dram.bytesPerActivate::896-1023           10      1.05%     89.14% # Bytes accessed per row activation
system.mem_ctrls.dram.bytesPerActivate::1024-1151          103     10.86%    100.00% # Bytes accessed per row activation
system.mem_ctrls.dram.bytesPerActivate::total          948                       # Bytes accessed per row activation
system.mem_ctrls.dram.bytesRead                283392                       # Total number of bytes read from DRAM
system.mem_ctrls.dram.bytesWritten               4160                       # Total number of bytes written to DRAM
system.mem_ctrls.dram.avgRdBW              235.280541                       # Average DRAM read bandwidth in MiBytes/s
system.mem_ctrls.dram.avgWrBW                3.453757                       # Average DRAM write bandwidth in MiBytes/s
system.mem_ctrls.dram.peakBW                 12800.00                       # Theoretical peak bandwidth in MiByte/s
system.mem_ctrls.dram.busUtil                    1.87                       # Data bus utilization in percentage
system.mem_ctrls.dram.busUtilRead                1.84                       # Data bus utilization in percentage for reads
system.mem_ctrls.dram.busUtilWrite               0.03                       # Data bus utilization in percentage for writes
system.mem_ctrls.dram.pageHitRate               78.70                       # Row buffer hit rate, read and write combined
system.mem_ctrls.dram.power_state.pwrStateResidencyTicks::UNDEFINED   1204485500                       # Cumulative time (in ticks) in various power states
system.mem_ctrls.dram.rank0.actEnergy         3827040                       # Energy for activate commands per rank (pJ)
system.mem_ctrls.dram.rank0.preEnergy         2018940                       # Energy for precharge commands per rank (pJ)
system.mem_ctrls.dram.rank0.readEnergy       15450960                       # Energy for read commands per rank (pJ)
system.mem_ctrls.dram.rank0.writeEnergy         31320                       # Energy for write commands per rank (pJ)
system.mem_ctrls.dram.rank0.refreshEnergy 94654560.000000                       # Energy for refresh commands per rank (pJ)
system.mem_ctrls.dram.rank0.actBackEnergy    301418850                       # Energy for active background per rank (pJ)
system.mem_ctrls.dram.rank0.preBackEnergy    208696320                       # Energy for precharge background per rank (pJ)
system.mem_ctrls.dram.rank0.actPowerDownEnergy            0                       # Energy for active power-down per rank (pJ)
system.mem_ctrls.dram.rank0.prePowerDownEnergy            0                       # Energy for precharge power-down per rank (pJ)
system.mem_ctrls.dram.rank0.selfRefreshEnergy            0                       # Energy for self refresh per rank (pJ)
system.mem_ctrls.dram.rank0.totalEnergy     626097990                       # Total energy per rank (pJ)
system.mem_ctrls.dram.rank0.averagePower   519.805336                       # Core power per rank (mW)
system.mem_ctrls.dram.rank0.totalIdleTime            0                       # Total Idle time Per DRAM Rank
system.mem_ctrls.dram.rank0.pwrStateTime::IDLE    540000750                       # Time in different power states
system.mem_ctrls.dram.rank0.pwrStateTime::REF     40040000                       # Time in different power states
system.mem_ctrls.dram.rank0.pwrStateTime::SREF            0                       # Time in different power states
system.mem_ctrls.dram.rank0.pwrStateTime::PRE_PDN            0                       # Time in different power states
system.mem_ctrls.dram.rank0.pwrStateTime::ACT    624444750                       # Time in different power states
system.mem_ctrls.dram.rank0.pwrStateTime::ACT_PDN            0                       # Time in different power states
system.mem_ctrls.dram.rank1.actEnergy         3005940                       # Energy for activate commands per rank (pJ)
system.mem_ctrls.dram.rank1.preEnergy         1578720                       # Energy for precharge commands per rank (pJ)
system.mem_ctrls.dram.rank1.readEnergy       16164960                       # Energy for read commands per rank (pJ)
system.mem_ctrls.dram.rank1.writeEnergy        307980                       # Energy for write commands per rank (pJ)
system.mem_ctrls.dram.rank1.refreshEnergy 94654560.000000                       # Energy for refresh commands per rank (pJ)
system.mem_ctrls.dram.rank1.actBackEnergy    277966770                       # Energy for active background per rank (pJ)
system.mem_ctrls.dram.rank1.preBackEnergy    228445440                       # Energy for precharge background per rank (pJ)
system.mem_ctrls.dram.rank1.actPowerDownEnergy            0                       # Energy for active power-down per rank (pJ)
system.mem_ctrls.dram.rank1.prePowerDownEnergy            0                       # Energy for precharge power-down per rank (pJ)
system.mem_ctrls.dram.rank1.selfRefreshEnergy            0                       # Energy for self refresh per rank (pJ)
system.mem_ctrls.dram.rank1.totalEnergy     622124370                       # Total energy per rank (pJ)
system.mem_ctrls.dram.rank1.averagePower   516.506317                       # Core power per rank (mW)
system.mem_ctrls.dram.rank1.totalIdleTime            0                       # Total Idle time Per DRAM Rank
system.mem_ctrls.dram.rank1.pwrStateTime::IDLE    591266750                       # Time in different power states
system.mem_ctrls.dram.rank1.pwrStateTime::REF     40040000                       # Time in different power states
system.mem_ctrls.dram.rank1.pwrStateTime::SREF            0                       # Time in different power states
system.mem_ctrls.dram.rank1.pwrStateTime::PRE_PDN            0                       # Time in different power states
system.mem_ctrls.dram.rank1.pwrStateTime::ACT    573178750                       # Time in different power states
system.mem_ctrls.dram.rank1.pwrStateTime::ACT_PDN            0                       # Time in different power states
system.mem_ctrls.power_state.pwrStateResidencyTicks::UNDEFINED   1204485500                       # Cumulative time (in ticks) in various power states
system.membus.trans_dist::ReadResp               3822                       # Transaction distribution
system.membus.trans_dist::WritebackDirty           92                       # Transaction distribution
system.membus.trans_dist::CleanEvict              652                       # Transaction distribution
system.membus.trans_dist::ReadExReq               611                       # Transaction distribution
system.membus.trans_dist::ReadExResp              611                       # Transaction distribution
system.membus.trans_dist::ReadSharedReq          3822                       # Transaction distribution
system.membus.pkt_count_system.l2.mem_side_port::system.mem_ctrls.port         9610                       # Packet count per connected requestor and responder (bytes)
system.membus.pkt_count_system.l2.mem_side_port::total         9610                       # Packet count per connected requestor and responder (bytes)
system.membus.pkt_count::total                   9610                       # Packet count per connected requestor and responder (bytes)
system.membus.pkt_size_system.l2.mem_side_port::system.mem_ctrls.port       289600                       # Cumulative packet size per connected requestor and responder (bytes)
system.membus.pkt_size_system.l2.mem_side_port::total       289600                       # Cumulative packet size per connected requestor and responder (bytes)
system.membus.pkt_size::total                  289600                       # Cumulative packet size per connected requestor and responder (bytes)
system.membus.snoops                                0                       # Total snoops (count)
system.membus.snoopTraffic                          0                       # Total snoop traffic (bytes)
system.membus.snoop_fanout::samples              4433                       # Request fanout histogram
system.membus.snoop_fanout::mean                    0                       # Request fanout histogram
system.membus.snoop_fanout::stdev                   0                       # Request fanout histogram
system.membus.snoop_fanout::underflows              0      0.00%      0.00% # Request fanout histogram
system.membus.snoop_fanout::0                    4433    100.00%    100.00% # Request fanout histogram
system.membus.snoop_fanout::1                       0      0.00%    100.00% # Request fanout histogram
system.membus.snoop_fanout::overflows               0      0.00%    100.00% # Request fanout histogram
system.membus.snoop_fanout::min_value               0                       # Request fanout histogram
system.membus.snoop_fanout::max_value               0                       # Request fanout histogram
system.membus.snoop_fanout::total                4433                       # Request fanout histogram
system.membus.power_state.pwrStateResidencyTicks::UNDEFINED   1204485500                       # Cumulative time (in ticks) in various power states
system.membus.reqLayer2.occupancy             5553000                       # Layer occupancy (ticks)
system.membus.reqLayer2.utilization               0.5                       # Layer utilization (%)
system.membus.respLayer1.occupancy           23550500                       # Layer occupancy (ticks)
system.membus.respLayer1.utilization              2.0                       # Layer utilization (%)
system.tol2bus.trans_dist::ReadResp              3938                       # Transaction distribution
system.tol2bus.trans_dist::WritebackDirty          479                       # Transaction distribution
system.tol2bus.trans_dist::WritebackClean          257                       # Transaction distribution
system.tol2bus.trans_dist::CleanEvict            3535                       # Transaction distribution
system.tol2bus.trans_dist::ReadExReq              647                       # Transaction distribution
system.tol2bus.trans_dist::ReadExResp             647                       # Transaction distribution
system.tol2bus.trans_dist::ReadCleanReq          1602                       # Transaction distribution
system.tol2bus.trans_dist::ReadSharedReq         2336                       # Transaction distribution
system.tol2bus.pkt_count_system.cpu.icache.mem_side_port::system.l2.cpu_side_port         3461                       # Packet count per connected requestor and responder (bytes)
system.tol2bus.pkt_count_system.cpu.dcache.mem_side_port::system.l2.cpu_side_port         6972                       # Packet count per connected requestor and responder (bytes)
system.tol2bus.pkt_count::total                 10433                       # Packet count per connected requestor and responder (bytes)
system.tol2bus.pkt_size_system.cpu.icache.mem_side_port::system.l2.cpu_side_port       118976                       # Cumulative packet size per connected requestor and responder (bytes)
system.tol2bus.pkt_size_system.cpu.dcache.mem_side_port::system.l2.cpu_side_port       215680                       # Cumulative packet size per connected requestor and responder (bytes)
system.tol2bus.pkt_size::total                 334656                       # Cumulative packet size per connected requestor and responder (bytes)
system.tol2bus.snoops                            3008                       # Total snoops (count)
system.tol2bus.snoopTraffic                      5888                       # Total snoop traffic (bytes)
system.tol2bus.snoop_fanout::samples             7593                       # Request fanout histogram
system.tol2bus.snoop_fanout::mean            0.370605                       # Request fanout histogram
system.tol2bus.snoop_fanout::stdev           0.482998                       # Request fanout histogram
system.tol2bus.snoop_fanout::underflows             0      0.00%      0.00% # Request fanout histogram
system.tol2bus.snoop_fanout::0                   4779     62.94%     62.94% # Request fanout histogram
system.tol2bus.snoop_fanout::1                   2814     37.06%    100.00% # Request fanout histogram
system.tol2bus.snoop_fanout::2                      0      0.00%    100.00% # Request fanout histogram
system.tol2bus.snoop_fanout::3                      0      0.00%    100.00% # Request fanout histogram
system.tol2bus.snoop_fanout::4                      0      0.00%    100.00% # Request fanout histogram
system.tol2bus.snoop_fanout::overflows              0      0.00%    100.00% # Request fanout histogram
system.tol2bus.snoop_fanout::min_value              0                       # Request fanout histogram
system.tol2bus.snoop_fanout::max_value              1                       # Request fanout histogram
system.tol2bus.snoop_fanout::total               7593                       # Request fanout histogram
system.tol2bus.power_state.pwrStateResidencyTicks::UNDEFINED   1204485500                       # Cumulative time (in ticks) in various power states
system.tol2bus.reqLayer0.occupancy            3568000                       # Layer occupancy (ticks)
system.tol2bus.reqLayer0.utilization              0.3                       # Layer utilization (%)
system.tol2bus.respLayer0.occupancy           2403000                       # Layer occupancy (ticks)
system.tol2bus.respLayer0.utilization             0.2                       # Layer utilization (%)
system.tol2bus.respLayer1.occupancy           4474500                       # Layer occupancy (ticks)
system.tol2bus.respLayer1.utilization             0.4                       # Layer utilization (%)
system.voltage_domain.voltage                       1                       # Voltage in Volts

---------- End Simulation Statistics   ----------
