
---------- Begin Simulation Statistics ----------
final_tick                               187688357500                       # Number of ticks from beginning of simulation (restored from checkpoints and never reset)
host_inst_rate                                 559936                       # Simulator instruction rate (inst/s)
host_mem_usage                                 703332                       # Number of bytes of host memory used
host_op_rate                                   885289                       # Simulator op (including micro ops) rate (op/s)
host_seconds                                   178.59                       # Real time elapsed on the host
host_tick_rate                             1050933584                       # Simulator tick rate (ticks/s)
sim_freq                                 1000000000000                       # Frequency of simulated ticks
sim_insts                                   100000001                       # Number of instructions simulated
sim_ops                                     158105592                       # Number of ops (including micro ops) simulated
sim_seconds                                  0.187688                       # Number of seconds simulated
sim_ticks                                187688357500                       # Number of ticks simulated
system.cpu.Branches                           8068245                       # Number of branches fetched
system.cpu.committedInsts                   100000001                       # Number of instructions committed
system.cpu.committedOps                     158105592                       # Number of ops (including micro ops) committed
system.cpu.idle_fraction                            0                       # Percentage of idle cycles
system.cpu.not_idle_fraction                        1                       # Percentage of non-idle cycles
system.cpu.numCycles                        375376715                       # number of cpu cycles simulated
system.cpu.numWorkItemsCompleted                    0                       # number of work items this cpu completed
system.cpu.numWorkItemsStarted                      0                       # number of work items this cpu started
system.cpu.num_busy_cycles                  375376715                       # Number of busy cycles
system.cpu.num_cc_register_reads             26309364                       # number of times the CC registers were read
system.cpu.num_cc_register_writes            50490369                       # number of times the CC registers were written
system.cpu.num_conditional_control_insts      4194429                       # number of instructions that are conditional controls
system.cpu.num_fp_alu_accesses               33007950                       # Number of float alu accesses
system.cpu.num_fp_insts                      33007950                       # number of float instructions
system.cpu.num_fp_register_reads             36021489                       # number of times the floating registers were read
system.cpu.num_fp_register_writes            28984633                       # number of times the floating registers were written
system.cpu.num_func_calls                      911313                       # number of times a function call or return occured
system.cpu.num_idle_cycles                          0                       # Number of idle cycles
system.cpu.num_int_alu_accesses             137710574                       # Number of integer alu accesses
system.cpu.num_int_insts                    137710574                       # number of integer instructions
system.cpu.num_int_register_reads           303623416                       # number of times the integer registers were read
system.cpu.num_int_register_writes          116067071                       # number of times the integer registers were written
system.cpu.num_load_insts                    42950395                       # Number of load instructions
system.cpu.num_mem_refs                      50914575                       # number of memory refs
system.cpu.num_store_insts                    7964180                       # Number of store instructions
system.cpu.num_vec_alu_accesses                     0                       # Number of vector alu accesses
system.cpu.num_vec_insts                            0                       # number of vector instructions
system.cpu.num_vec_register_reads                   0                       # number of times the vector registers were read
system.cpu.num_vec_register_writes                  0                       # number of times the vector registers were written
system.cpu.op_class::No_OpClass                737110      0.47%      0.47% # Class of executed instruction
system.cpu.op_class::IntAlu                  83725076     52.96%     53.42% # Class of executed instruction
system.cpu.op_class::IntMult                  3991004      2.52%     55.95% # Class of executed instruction
system.cpu.op_class::IntDiv                     35934      0.02%     55.97% # Class of executed instruction
system.cpu.op_class::FloatAdd                 7424559      4.70%     60.66% # Class of executed instruction
system.cpu.op_class::FloatCmp                       0      0.00%     60.66% # Class of executed instruction
system.cpu.op_class::FloatCvt                    1104      0.00%     60.66% # Class of executed instruction
system.cpu.op_class::FloatMult                      0      0.00%     60.66% # Class of executed instruction
system.cpu.op_class::FloatMultAcc                   0      0.00%     60.66% # Class of executed instruction
system.cpu.op_class::FloatDiv                       0      0.00%     60.66% # Class of executed instruction
system.cpu.op_class::FloatMisc                      0      0.00%     60.66% # Class of executed instruction
system.cpu.op_class::FloatSqrt                      0      0.00%     60.66% # Class of executed instruction
system.cpu.op_class::SimdAdd                     6594      0.00%     60.67% # Class of executed instruction
system.cpu.op_class::SimdAddAcc                     0      0.00%     60.67% # Class of executed instruction
system.cpu.op_class::SimdAlu                  2217297      1.40%     62.07% # Class of executed instruction
system.cpu.op_class::SimdCmp                        0      0.00%     62.07% # Class of executed instruction
system.cpu.op_class::SimdCvt                    13550      0.01%     62.08% # Class of executed instruction
system.cpu.op_class::SimdMisc                 1026602      0.65%     62.73% # Class of executed instruction
system.cpu.op_class::SimdMult                       0      0.00%     62.73% # Class of executed instruction
system.cpu.op_class::SimdMultAcc                    0      0.00%     62.73% # Class of executed instruction
system.cpu.op_class::SimdShift                    341      0.00%     62.73% # Class of executed instruction
system.cpu.op_class::SimdShiftAcc                   0      0.00%     62.73% # Class of executed instruction
system.cpu.op_class::SimdDiv                        0      0.00%     62.73% # Class of executed instruction
system.cpu.op_class::SimdSqrt                       0      0.00%     62.73% # Class of executed instruction
system.cpu.op_class::SimdFloatAdd             3435965      2.17%     64.90% # Class of executed instruction
system.cpu.op_class::SimdFloatAlu                   0      0.00%     64.90% # Class of executed instruction
system.cpu.op_class::SimdFloatCmp                   0      0.00%     64.90% # Class of executed instruction
system.cpu.op_class::SimdFloatCvt              516159      0.33%     65.23% # Class of executed instruction
system.cpu.op_class::SimdFloatDiv              103976      0.07%     65.30% # Class of executed instruction
system.cpu.op_class::SimdFloatMisc                  0      0.00%     65.30% # Class of executed instruction
system.cpu.op_class::SimdFloatMult            3955815      2.50%     67.80% # Class of executed instruction
system.cpu.op_class::SimdFloatMultAcc               0      0.00%     67.80% # Class of executed instruction
system.cpu.op_class::SimdFloatSqrt                256      0.00%     67.80% # Class of executed instruction
system.cpu.op_class::SimdReduceAdd                  0      0.00%     67.80% # Class of executed instruction
system.cpu.op_class::SimdReduceAlu                  0      0.00%     67.80% # Class of executed instruction
system.cpu.op_class::SimdReduceCmp                  0      0.00%     67.80% # Class of executed instruction
system.cpu.op_class::SimdFloatReduceAdd             0      0.00%     67.80% # Class of executed instruction
system.cpu.op_class::SimdFloatReduceCmp             0      0.00%     67.80% # Class of executed instruction
system.cpu.op_class::SimdAes                        0      0.00%     67.80% # Class of executed instruction
system.cpu.op_class::SimdAesMix                     0      0.00%     67.80% # Class of executed instruction
system.cpu.op_class::SimdSha1Hash                   0      0.00%     67.80% # Class of executed instruction
system.cpu.op_class::SimdSha1Hash2                  0      0.00%     67.80% # Class of executed instruction
system.cpu.op_class::SimdSha256Hash                 0      0.00%     67.80% # Class of executed instruction
system.cpu.op_class::SimdSha256Hash2                0      0.00%     67.80% # Class of executed instruction
system.cpu.op_class::SimdShaSigma2                  0      0.00%     67.80% # Class of executed instruction
system.cpu.op_class::SimdShaSigma3                  0      0.00%     67.80% # Class of executed instruction
system.cpu.op_class::SimdPredAlu                    0      0.00%     67.80% # Class of executed instruction
system.cpu.op_class::MemRead                 33643170     21.28%     89.08% # Class of executed instruction
system.cpu.op_class::MemWrite                 4944921      3.13%     92.20% # Class of executed instruction
system.cpu.op_class::FloatMemRead             9307225      5.89%     98.09% # Class of executed instruction
system.cpu.op_class::FloatMemWrite            3019259      1.91%    100.00% # Class of executed instruction
system.cpu.op_class::IprAccess                      0      0.00%    100.00% # Class of executed instruction
system.cpu.op_class::InstPrefetch                   0      0.00%    100.00% # Class of executed instruction
system.cpu.op_class::total                  158105917                       # Class of executed instruction
system.cpu.workload.numSyscalls                    68                       # Number of system calls
system.membus.snoop_filter.hit_multi_requests            0                       # Number of requests hitting in the snoop filter with multiple (>1) holders of the requested data.
system.membus.snoop_filter.hit_multi_snoops            0                       # Number of snoops hitting in the snoop filter with multiple (>1) holders of the requested data.
system.membus.snoop_filter.hit_single_requests        16029                       # Number of requests hitting in the snoop filter with a single holder of the requested data.
system.membus.snoop_filter.hit_single_snoops            0                       # Number of snoops hitting in the snoop filter with a single holder of the requested data.
system.membus.snoop_filter.tot_requests         39863                       # Total number of requests made to the snoop filter.
system.membus.snoop_filter.tot_snoops               0                       # Total number of snoops made to the snoop filter.
system.tol2bus.snoop_filter.hit_multi_requests            0                       # Number of requests hitting in the snoop filter with multiple (>1) holders of the requested data.
system.tol2bus.snoop_filter.hit_multi_snoops            0                       # Number of snoops hitting in the snoop filter with multiple (>1) holders of the requested data.
system.tol2bus.snoop_filter.hit_single_requests        17842                       # Number of requests hitting in the snoop filter with a single holder of the requested data.
system.tol2bus.snoop_filter.hit_single_snoops        16177                       # Number of snoops hitting in the snoop filter with a single holder of the requested data.
system.tol2bus.snoop_filter.tot_requests        42292                       # Total number of requests made to the snoop filter.
system.tol2bus.snoop_filter.tot_snoops          16177                       # Total number of snoops made to the snoop filter.
system.clk_domain.clock                          1000                       # Clock period in ticks
system.cpu.dcache.demand_hits::.cpu.data     50893188                       # number of demand (read+write) hits
system.cpu.dcache.demand_hits::total         50893188                       # number of demand (read+write) hits
system.cpu.dcache.overall_hits::.cpu.data     50893188                       # number of overall hits
system.cpu.dcache.overall_hits::total        50893188                       # number of overall hits
system.cpu.dcache.demand_misses::.cpu.data        21437                       # number of demand (read+write) misses
system.cpu.dcache.demand_misses::total          21437                       # number of demand (read+write) misses
system.cpu.dcache.overall_misses::.cpu.data        21437                       # number of overall misses
system.cpu.dcache.overall_misses::total         21437                       # number of overall misses
system.cpu.dcache.demand_miss_latency::.cpu.data   1724692000                       # number of demand (read+write) miss cycles
system.cpu.dcache.demand_miss_latency::total   1724692000                       # number of demand (read+write) miss cycles
system.cpu.dcache.overall_miss_latency::.cpu.data   1724692000                       # number of overall miss cycles
system.cpu.dcache.overall_miss_latency::total   1724692000                       # number of overall miss cycles
system.cpu.dcache.demand_accesses::.cpu.data     50914625                       # number of demand (read+write) accesses
system.cpu.dcache.demand_accesses::total     50914625                       # number of demand (read+write) accesses
system.cpu.dcache.overall_accesses::.cpu.data     50914625                       # number of overall (read+write) accesses
system.cpu.dcache.overall_accesses::total     50914625                       # number of overall (read+write) accesses
system.cpu.dcache.demand_miss_rate::.cpu.data     0.000421                       # miss rate for demand accesses
system.cpu.dcache.demand_miss_rate::total     0.000421                       # miss rate for demand accesses
system.cpu.dcache.overall_miss_rate::.cpu.data     0.000421                       # miss rate for overall accesses
system.cpu.dcache.overall_miss_rate::total     0.000421                       # miss rate for overall accesses
system.cpu.dcache.demand_avg_miss_latency::.cpu.data 80453.981434                       # average overall miss latency
system.cpu.dcache.demand_avg_miss_latency::total 80453.981434                       # average overall miss latency
system.cpu.dcache.overall_avg_miss_latency::.cpu.data 80453.981434                       # average overall miss latency
system.cpu.dcache.overall_avg_miss_latency::total 80453.981434                       # average overall miss latency
system.cpu.dcache.blocked_cycles::no_mshrs            0                       # number of cycles access was blocked
system.cpu.dcache.blocked_cycles::no_targets            0                       # number of cycles access was blocked
system.cpu.dcache.blocked::no_mshrs                 0                       # number of cycles access was blocked
system.cpu.dcache.blocked::no_targets               0                       # number of cycles access was blocked
system.cpu.dcache.avg_blocked_cycles::no_mshrs          nan                       # average number of cycles each access was blocked
system.cpu.dcache.avg_blocked_cycles::no_targets          nan                       # average number of cycles each access was blocked
system.cpu.dcache.writebacks::.writebacks         3367                       # number of writebacks
system.cpu.dcache.writebacks::total              3367                       # number of writebacks
system.cpu.dcache.demand_mshr_misses::.cpu.data        21437                       # number of demand (read+write) MSHR misses
system.cpu.dcache.demand_mshr_misses::total        21437                       # number of demand (read+write) MSHR misses
system.cpu.dcache.overall_mshr_misses::.cpu.data        21437                       # number of overall MSHR misses
system.cpu.dcache.overall_mshr_misses::total        21437                       # number of overall MSHR misses
system.cpu.dcache.demand_mshr_miss_latency::.cpu.data   1703255000                       # number of demand (read+write) MSHR miss cycles
system.cpu.dcache.demand_mshr_miss_latency::total   1703255000                       # number of demand (read+write) MSHR miss cycles
system.cpu.dcache.overall_mshr_miss_latency::.cpu.data   1703255000                       # number of overall MSHR miss cycles
system.cpu.dcache.overall_mshr_miss_latency::total   1703255000                       # number of overall MSHR miss cycles
system.cpu.dcache.demand_mshr_miss_rate::.cpu.data     0.000421                       # mshr miss rate for demand accesses
system.cpu.dcache.demand_mshr_miss_rate::total     0.000421                       # mshr miss rate for demand accesses
system.cpu.dcache.overall_mshr_miss_rate::.cpu.data     0.000421                       # mshr miss rate for overall accesses
system.cpu.dcache.overall_mshr_miss_rate::total     0.000421                       # mshr miss rate for overall accesses
system.cpu.dcache.demand_avg_mshr_miss_latency::.cpu.data 79453.981434                       # average overall mshr miss latency
system.cpu.dcache.demand_avg_mshr_miss_latency::total 79453.981434                       # average overall mshr miss latency
system.cpu.dcache.overall_avg_mshr_miss_latency::.cpu.data 79453.981434                       # average overall mshr miss latency
system.cpu.dcache.overall_avg_mshr_miss_latency::total 79453.981434                       # average overall mshr miss latency
system.cpu.dcache.replacements                  17341                       # number of replacements
system.cpu.dcache.ReadReq_hits::.cpu.data     42933463                       # number of ReadReq hits
system.cpu.dcache.ReadReq_hits::total        42933463                       # number of ReadReq hits
system.cpu.dcache.ReadReq_misses::.cpu.data        17010                       # number of ReadReq misses
system.cpu.dcache.ReadReq_misses::total         17010                       # number of ReadReq misses
system.cpu.dcache.ReadReq_miss_latency::.cpu.data   1388019000                       # number of ReadReq miss cycles
system.cpu.dcache.ReadReq_miss_latency::total   1388019000                       # number of ReadReq miss cycles
system.cpu.dcache.ReadReq_accesses::.cpu.data     42950473                       # number of ReadReq accesses(hits+misses)
system.cpu.dcache.ReadReq_accesses::total     42950473                       # number of ReadReq accesses(hits+misses)
system.cpu.dcache.ReadReq_miss_rate::.cpu.data     0.000396                       # miss rate for ReadReq accesses
system.cpu.dcache.ReadReq_miss_rate::total     0.000396                       # miss rate for ReadReq accesses
system.cpu.dcache.ReadReq_avg_miss_latency::.cpu.data 81600.176367                       # average ReadReq miss latency
system.cpu.dcache.ReadReq_avg_miss_latency::total 81600.176367                       # average ReadReq miss latency
system.cpu.dcache.ReadReq_mshr_misses::.cpu.data        17010                       # number of ReadReq MSHR misses
system.cpu.dcache.ReadReq_mshr_misses::total        17010                       # number of ReadReq MSHR misses
system.cpu.dcache.ReadReq_mshr_miss_latency::.cpu.data   1371009000                       # number of ReadReq MSHR miss cycles
system.cpu.dcache.ReadReq_mshr_miss_latency::total   1371009000                       # number of ReadReq MSHR miss cycles
system.cpu.dcache.ReadReq_mshr_miss_rate::.cpu.data     0.000396                       # mshr miss rate for ReadReq accesses
system.cpu.dcache.ReadReq_mshr_miss_rate::total     0.000396                       # mshr miss rate for ReadReq accesses
system.cpu.dcache.ReadReq_avg_mshr_miss_latency::.cpu.data 80600.176367                       # average ReadReq mshr miss latency
system.cpu.dcache.ReadReq_avg_mshr_miss_latency::total 80600.176367                       # average ReadReq mshr miss latency
system.cpu.dcache.WriteReq_hits::.cpu.data      7959725                       # number of WriteReq hits
system.cpu.dcache.WriteReq_hits::total        7959725                       # number of WriteReq hits
system.cpu.dcache.WriteReq_misses::.cpu.data         4427                       # number of WriteReq misses
system.cpu.dcache.WriteReq_misses::total         4427                       # number of WriteReq misses
system.cpu.dcache.WriteReq_miss_latency::.cpu.data    336673000                       # number of WriteReq miss cycles
system.cpu.dcache.WriteReq_miss_latency::total    336673000                       # number of WriteReq miss cycles
system.cpu.dcache.WriteReq_accesses::.cpu.data      7964152                       # number of WriteReq accesses(hits+misses)
system.cpu.dcache.WriteReq_accesses::total      7964152                       # number of WriteReq accesses(hits+misses)
system.cpu.dcache.WriteReq_miss_rate::.cpu.data     0.000556                       # miss rate for WriteReq accesses
system.cpu.dcache.WriteReq_miss_rate::total     0.000556                       # miss rate for WriteReq accesses
system.cpu.dcache.WriteReq_avg_miss_latency::.cpu.data 76049.920940                       # average WriteReq miss latency
system.cpu.dcache.WriteReq_avg_miss_latency::total 76049.920940                       # average WriteReq miss latency
system.cpu.dcache.WriteReq_mshr_misses::.cpu.data         4427                       # number of WriteReq MSHR misses
system.cpu.dcache.WriteReq_mshr_misses::total         4427                       # number of WriteReq MSHR misses
system.cpu.dcache.WriteReq_mshr_miss_latency::.cpu.data    332246000                       # number of WriteReq MSHR miss cycles
system.cpu.dcache.WriteReq_mshr_miss_latency::total    332246000                       # number of WriteReq MSHR miss cycles
system.cpu.dcache.WriteReq_mshr_miss_rate::.cpu.data     0.000556                       # mshr miss rate for WriteReq accesses
system.cpu.dcache.WriteReq_mshr_miss_rate::total     0.000556                       # mshr miss rate for WriteReq accesses
system.cpu.dcache.WriteReq_avg_mshr_miss_latency::.cpu.data 75049.920940                       # average WriteReq mshr miss latency
system.cpu.dcache.WriteReq_avg_mshr_miss_latency::total 75049.920940                       # average WriteReq mshr miss latency
system.cpu.dcache.power_state.pwrStateResidencyTicks::UNDEFINED 187688357500                       # Cumulative time (in ticks) in various power states
system.cpu.dcache.tags.tagsinuse          4088.614703                       # Cycle average of tags in use
system.cpu.dcache.tags.total_refs            50914625                       # Total number of references to valid blocks.
system.cpu.dcache.tags.sampled_refs             21437                       # Sample count of references to valid blocks.
system.cpu.dcache.tags.avg_refs           2375.081635                       # Average number of references to valid blocks.
system.cpu.dcache.tags.warmup_cycle            174500                       # Cycle when the warmup percentage was hit.
system.cpu.dcache.tags.occ_blocks::.cpu.data  4088.614703                       # Average occupied blocks per requestor
system.cpu.dcache.tags.occ_percent::.cpu.data     0.998197                       # Average percentage of cache occupancy
system.cpu.dcache.tags.occ_percent::total     0.998197                       # Average percentage of cache occupancy
system.cpu.dcache.tags.occ_task_id_blocks::1024         4096                       # Occupied blocks per task id
system.cpu.dcache.tags.age_task_id_blocks_1024::4         4096                       # Occupied blocks per task id
system.cpu.dcache.tags.occ_task_id_percent::1024            1                       # Percentage of cache occupancy per task id
system.cpu.dcache.tags.tag_accesses        1629289437                       # Number of tag accesses
system.cpu.dcache.tags.data_accesses       1629289437                       # Number of data accesses
system.cpu.dcache.tags.power_state.pwrStateResidencyTicks::UNDEFINED 187688357500                       # Cumulative time (in ticks) in various power states
system.cpu.dtb.rdAccesses                    42950693                       # TLB accesses on read requests
system.cpu.dtb.wrAccesses                     7964190                       # TLB accesses on write requests
system.cpu.dtb.rdMisses                          1293                       # TLB misses on read requests
system.cpu.dtb.wrMisses                           115                       # TLB misses on write requests
system.cpu.dtb.walker.power_state.pwrStateResidencyTicks::UNDEFINED 187688357500                       # Cumulative time (in ticks) in various power states
system.cpu.dtb_walker_cache.blocked_cycles::no_mshrs            0                       # number of cycles access was blocked
system.cpu.dtb_walker_cache.blocked_cycles::no_targets            0                       # number of cycles access was blocked
system.cpu.dtb_walker_cache.blocked::no_mshrs            0                       # number of cycles access was blocked
system.cpu.dtb_walker_cache.blocked::no_targets            0                       # number of cycles access was blocked
system.cpu.dtb_walker_cache.avg_blocked_cycles::no_mshrs          nan                       # average number of cycles each access was blocked
system.cpu.dtb_walker_cache.avg_blocked_cycles::no_targets          nan                       # average number of cycles each access was blocked
system.cpu.dtb_walker_cache.replacements            0                       # number of replacements
system.cpu.dtb_walker_cache.power_state.pwrStateResidencyTicks::UNDEFINED 187688357500                       # Cumulative time (in ticks) in various power states
system.cpu.dtb_walker_cache.tags.tagsinuse            0                       # Cycle average of tags in use
system.cpu.dtb_walker_cache.tags.total_refs            0                       # Total number of references to valid blocks.
system.cpu.dtb_walker_cache.tags.sampled_refs            0                       # Sample count of references to valid blocks.
system.cpu.dtb_walker_cache.tags.avg_refs          nan                       # Average number of references to valid blocks.
system.cpu.dtb_walker_cache.tags.warmup_cycle            0                       # Cycle when the warmup percentage was hit.
system.cpu.dtb_walker_cache.tags.tag_accesses            0                       # Number of tag accesses
system.cpu.dtb_walker_cache.tags.data_accesses            0                       # Number of data accesses
system.cpu.dtb_walker_cache.tags.power_state.pwrStateResidencyTicks::UNDEFINED 187688357500                       # Cumulative time (in ticks) in various power states
system.cpu.icache.demand_hits::.cpu.inst    134834550                       # number of demand (read+write) hits
system.cpu.icache.demand_hits::total        134834550                       # number of demand (read+write) hits
system.cpu.icache.overall_hits::.cpu.inst    134834550                       # number of overall hits
system.cpu.icache.overall_hits::total       134834550                       # number of overall hits
system.cpu.icache.demand_misses::.cpu.inst         3013                       # number of demand (read+write) misses
system.cpu.icache.demand_misses::total           3013                       # number of demand (read+write) misses
system.cpu.icache.overall_misses::.cpu.inst         3013                       # number of overall misses
system.cpu.icache.overall_misses::total          3013                       # number of overall misses
system.cpu.icache.demand_miss_latency::.cpu.inst    237121000                       # number of demand (read+write) miss cycles
system.cpu.icache.demand_miss_latency::total    237121000                       # number of demand (read+write) miss cycles
system.cpu.icache.overall_miss_latency::.cpu.inst    237121000                       # number of overall miss cycles
system.cpu.icache.overall_miss_latency::total    237121000                       # number of overall miss cycles
system.cpu.icache.demand_accesses::.cpu.inst    134837563                       # number of demand (read+write) accesses
system.cpu.icache.demand_accesses::total    134837563                       # number of demand (read+write) accesses
system.cpu.icache.overall_accesses::.cpu.inst    134837563                       # number of overall (read+write) accesses
system.cpu.icache.overall_accesses::total    134837563                       # number of overall (read+write) accesses
system.cpu.icache.demand_miss_rate::.cpu.inst     0.000022                       # miss rate for demand accesses
system.cpu.icache.demand_miss_rate::total     0.000022                       # miss rate for demand accesses
system.cpu.icache.overall_miss_rate::.cpu.inst     0.000022                       # miss rate for overall accesses
system.cpu.icache.overall_miss_rate::total     0.000022                       # miss rate for overall accesses
system.cpu.icache.demand_avg_miss_latency::.cpu.inst 78699.303020                       # average overall miss latency
system.cpu.icache.demand_avg_miss_latency::total 78699.303020                       # average overall miss latency
system.cpu.icache.overall_avg_miss_latency::.cpu.inst 78699.303020                       # average overall miss latency
system.cpu.icache.overall_avg_miss_latency::total 78699.303020                       # average overall miss latency
system.cpu.icache.blocked_cycles::no_mshrs            0                       # number of cycles access was blocked
system.cpu.icache.blocked_cycles::no_targets            0                       # number of cycles access was blocked
system.cpu.icache.blocked::no_mshrs                 0                       # number of cycles access was blocked
system.cpu.icache.blocked::no_targets               0                       # number of cycles access was blocked
system.cpu.icache.avg_blocked_cycles::no_mshrs          nan                       # average number of cycles each access was blocked
system.cpu.icache.avg_blocked_cycles::no_targets          nan                       # average number of cycles each access was blocked
system.cpu.icache.writebacks::.writebacks          501                       # number of writebacks
system.cpu.icache.writebacks::total               501                       # number of writebacks
system.cpu.icache.demand_mshr_misses::.cpu.inst         3013                       # number of demand (read+write) MSHR misses
system.cpu.icache.demand_mshr_misses::total         3013                       # number of demand (read+write) MSHR misses
system.cpu.icache.overall_mshr_misses::.cpu.inst         3013                       # number of overall MSHR misses
system.cpu.icache.overall_mshr_misses::total         3013                       # number of overall MSHR misses
system.cpu.icache.demand_mshr_miss_latency::.cpu.inst    234108000                       # number of demand (read+write) MSHR miss cycles
system.cpu.icache.demand_mshr_miss_latency::total    234108000                       # number of demand (read+write) MSHR miss cycles
system.cpu.icache.overall_mshr_miss_latency::.cpu.inst    234108000                       # number of overall MSHR miss cycles
system.cpu.icache.overall_mshr_miss_latency::total    234108000                       # number of overall MSHR miss cycles
system.cpu.icache.demand_mshr_miss_rate::.cpu.inst     0.000022                       # mshr miss rate for demand accesses
system.cpu.icache.demand_mshr_miss_rate::total     0.000022                       # mshr miss rate for demand accesses
system.cpu.icache.overall_mshr_miss_rate::.cpu.inst     0.000022                       # mshr miss rate for overall accesses
system.cpu.icache.overall_mshr_miss_rate::total     0.000022                       # mshr miss rate for overall accesses
system.cpu.icache.demand_avg_mshr_miss_latency::.cpu.inst 77699.303020                       # average overall mshr miss latency
system.cpu.icache.demand_avg_mshr_miss_latency::total 77699.303020                       # average overall mshr miss latency
system.cpu.icache.overall_avg_mshr_miss_latency::.cpu.inst 77699.303020                       # average overall mshr miss latency
system.cpu.icache.overall_avg_mshr_miss_latency::total 77699.303020                       # average overall mshr miss latency
system.cpu.icache.replacements                    501                       # number of replacements
system.cpu.icache.ReadReq_hits::.cpu.inst    134834550                       # number of ReadReq hits
system.cpu.icache.ReadReq_hits::total       134834550                       # number of ReadReq hits
system.cpu.icache.ReadReq_misses::.cpu.inst         3013                       # number of ReadReq misses
system.cpu.icache.ReadReq_misses::total          3013                       # number of ReadReq misses
system.cpu.icache.ReadReq_miss_latency::.cpu.inst    237121000                       # number of ReadReq miss cycles
system.cpu.icache.ReadReq_miss_latency::total    237121000                       # number of ReadReq miss cycles
system.cpu.icache.ReadReq_accesses::.cpu.inst    134837563                       # number of ReadReq accesses(hits+misses)
system.cpu.icache.ReadReq_accesses::total    134837563                       # number of ReadReq accesses(hits+misses)
system.cpu.icache.ReadReq_miss_rate::.cpu.inst     0.000022                       # miss rate for ReadReq accesses
system.cpu.icache.ReadReq_miss_rate::total     0.000022                       # miss rate for ReadReq accesses
system.cpu.icache.ReadReq_avg_miss_latency::.cpu.inst 78699.303020                       # average ReadReq miss latency
system.cpu.icache.ReadReq_avg_miss_latency::total 78699.303020                       # average ReadReq miss latency
system.cpu.icache.ReadReq_mshr_misses::.cpu.inst         3013                       # number of ReadReq MSHR misses
system.cpu.icache.ReadReq_mshr_misses::total         3013                       # number of ReadReq MSHR misses
system.cpu.icache.ReadReq_mshr_miss_latency::.cpu.inst    234108000                       # number of ReadReq MSHR miss cycles
system.cpu.icache.ReadReq_mshr_miss_latency::total    234108000                       # number of ReadReq MSHR miss cycles
system.cpu.icache.ReadReq_mshr_miss_rate::.cpu.inst     0.000022                       # mshr miss rate for ReadReq accesses
system.cpu.icache.ReadReq_mshr_miss_rate::total     0.000022                       # mshr miss rate for ReadReq accesses
system.cpu.icache.ReadReq_avg_mshr_miss_latency::.cpu.inst 77699.303020                       # average ReadReq mshr miss latency
system.cpu.icache.ReadReq_avg_mshr_miss_latency::total 77699.303020                       # average ReadReq mshr miss latency
system.cpu.icache.power_state.pwrStateResidencyTicks::UNDEFINED 187688357500                       # Cumulative time (in ticks) in various power states
system.cpu.icache.tags.tagsinuse          2475.506071                       # Cycle average of tags in use
system.cpu.icache.tags.total_refs           134837563                       # Total number of references to valid blocks.
system.cpu.icache.tags.sampled_refs              3013                       # Sample count of references to valid blocks.
system.cpu.icache.tags.avg_refs          44751.929306                       # Average number of references to valid blocks.
system.cpu.icache.tags.warmup_cycle             87500                       # Cycle when the warmup percentage was hit.
system.cpu.icache.tags.occ_blocks::.cpu.inst  2475.506071                       # Average occupied blocks per requestor
system.cpu.icache.tags.occ_percent::.cpu.inst     0.604372                       # Average percentage of cache occupancy
system.cpu.icache.tags.occ_percent::total     0.604372                       # Average percentage of cache occupancy
system.cpu.icache.tags.occ_task_id_blocks::1024         2512                       # Occupied blocks per task id
system.cpu.icache.tags.age_task_id_blocks_1024::4         2512                       # Occupied blocks per task id
system.cpu.icache.tags.occ_task_id_percent::1024     0.613281                       # Percentage of cache occupancy per task id
system.cpu.icache.tags.tag_accesses         269678139                       # Number of tag accesses
system.cpu.icache.tags.data_accesses        269678139                       # Number of data accesses
system.cpu.icache.tags.power_state.pwrStateResidencyTicks::UNDEFINED 187688357500                       # Cumulative time (in ticks) in various power states
system.cpu.interrupts.clk_domain.clock           8000                       # Clock period in ticks
system.cpu.itb.rdAccesses                           0                       # TLB accesses on read requests
system.cpu.itb.wrAccesses                   134837674                       # TLB accesses on write requests
system.cpu.itb.rdMisses                             0                       # TLB misses on read requests
system.cpu.itb.wrMisses                           376                       # TLB misses on write requests
system.cpu.itb.walker.power_state.pwrStateResidencyTicks::UNDEFINED 187688357500                       # Cumulative time (in ticks) in various power states
system.cpu.itb_walker_cache.blocked_cycles::no_mshrs            0                       # number of cycles access was blocked
system.cpu.itb_walker_cache.blocked_cycles::no_targets            0                       # number of cycles access was blocked
system.cpu.itb_walker_cache.blocked::no_mshrs            0                       # number of cycles access was blocked
system.cpu.itb_walker_cache.blocked::no_targets            0                       # number of cycles access was blocked
system.cpu.itb_walker_cache.avg_blocked_cycles::no_mshrs          nan                       # average number of cycles each access was blocked
system.cpu.itb_walker_cache.avg_blocked_cycles::no_targets          nan                       # average number of cycles each access was blocked
system.cpu.itb_walker_cache.replacements            0                       # number of replacements
system.cpu.itb_walker_cache.power_state.pwrStateResidencyTicks::UNDEFINED 187688357500                       # Cumulative time (in ticks) in various power states
system.cpu.itb_walker_cache.tags.tagsinuse            0                       # Cycle average of tags in use
system.cpu.itb_walker_cache.tags.total_refs            0                       # Total number of references to valid blocks.
system.cpu.itb_walker_cache.tags.sampled_refs            0                       # Sample count of references to valid blocks.
system.cpu.itb_walker_cache.tags.avg_refs          nan                       # Average number of references to valid blocks.
system.cpu.itb_walker_cache.tags.warmup_cycle            0                       # Cycle when the warmup percentage was hit.
system.cpu.itb_walker_cache.tags.tag_accesses            0                       # Number of tag accesses
system.cpu.itb_walker_cache.tags.data_accesses            0                       # Number of data accesses
system.cpu.itb_walker_cache.tags.power_state.pwrStateResidencyTicks::UNDEFINED 187688357500                       # Cumulative time (in ticks) in various power states
system.cpu.power_state.pwrStateResidencyTicks::ON 187688357500                       # Cumulative time (in ticks) in various power states
system.cpu.thread_0.numInsts                        0                       # Number of Instructions committed
system.cpu.thread_0.numOps                          0                       # Number of Ops committed
system.cpu.thread_0.numMemRefs                      0                       # Number of Memory References
system.cpu_clk_domain.clock                       500                       # Clock period in ticks
system.cpu_voltage_domain.voltage                   1                       # Voltage in Volts
system.l2.demand_hits::.cpu.inst                    9                       # number of demand (read+write) hits
system.l2.demand_hits::.cpu.data                  607                       # number of demand (read+write) hits
system.l2.demand_hits::total                      616                       # number of demand (read+write) hits
system.l2.overall_hits::.cpu.inst                   9                       # number of overall hits
system.l2.overall_hits::.cpu.data                 607                       # number of overall hits
system.l2.overall_hits::total                     616                       # number of overall hits
system.l2.demand_misses::.cpu.inst               3004                       # number of demand (read+write) misses
system.l2.demand_misses::.cpu.data              20830                       # number of demand (read+write) misses
system.l2.demand_misses::total                  23834                       # number of demand (read+write) misses
system.l2.overall_misses::.cpu.inst              3004                       # number of overall misses
system.l2.overall_misses::.cpu.data             20830                       # number of overall misses
system.l2.overall_misses::total                 23834                       # number of overall misses
system.l2.demand_miss_latency::.cpu.inst    229494000                       # number of demand (read+write) miss cycles
system.l2.demand_miss_latency::.cpu.data   1664720500                       # number of demand (read+write) miss cycles
system.l2.demand_miss_latency::total       1894214500                       # number of demand (read+write) miss cycles
system.l2.overall_miss_latency::.cpu.inst    229494000                       # number of overall miss cycles
system.l2.overall_miss_latency::.cpu.data   1664720500                       # number of overall miss cycles
system.l2.overall_miss_latency::total      1894214500                       # number of overall miss cycles
system.l2.demand_accesses::.cpu.inst             3013                       # number of demand (read+write) accesses
system.l2.demand_accesses::.cpu.data            21437                       # number of demand (read+write) accesses
system.l2.demand_accesses::total                24450                       # number of demand (read+write) accesses
system.l2.overall_accesses::.cpu.inst            3013                       # number of overall (read+write) accesses
system.l2.overall_accesses::.cpu.data           21437                       # number of overall (read+write) accesses
system.l2.overall_accesses::total               24450                       # number of overall (read+write) accesses
system.l2.demand_miss_rate::.cpu.inst        0.997013                       # miss rate for demand accesses
system.l2.demand_miss_rate::.cpu.data        0.971684                       # miss rate for demand accesses
system.l2.demand_miss_rate::total            0.974806                       # miss rate for demand accesses
system.l2.overall_miss_rate::.cpu.inst       0.997013                       # miss rate for overall accesses
system.l2.overall_miss_rate::.cpu.data       0.971684                       # miss rate for overall accesses
system.l2.overall_miss_rate::total           0.974806                       # miss rate for overall accesses
system.l2.demand_avg_miss_latency::.cpu.inst 76396.138482                       # average overall miss latency
system.l2.demand_avg_miss_latency::.cpu.data 79919.371099                       # average overall miss latency
system.l2.demand_avg_miss_latency::total 79475.308383                       # average overall miss latency
system.l2.overall_avg_miss_latency::.cpu.inst 76396.138482                       # average overall miss latency
system.l2.overall_avg_miss_latency::.cpu.data 79919.371099                       # average overall miss latency
system.l2.overall_avg_miss_latency::total 79475.308383                       # average overall miss latency
system.l2.blocked_cycles::no_mshrs                  0                       # number of cycles access was blocked
system.l2.blocked_cycles::no_targets                0                       # number of cycles access was blocked
system.l2.blocked::no_mshrs                         0                       # number of cycles access was blocked
system.l2.blocked::no_targets                       0                       # number of cycles access was blocked
system.l2.avg_blocked_cycles::no_mshrs            nan                       # average number of cycles each access was blocked
system.l2.avg_blocked_cycles::no_targets          nan                       # average number of cycles each access was blocked
system.l2.writebacks::.writebacks                2740                       # number of writebacks
system.l2.writebacks::total                      2740                       # number of writebacks
system.l2.demand_mshr_misses::.cpu.inst          3004                       # number of demand (read+write) MSHR misses
system.l2.demand_mshr_misses::.cpu.data         20830                       # number of demand (read+write) MSHR misses
system.l2.demand_mshr_misses::total             23834                       # number of demand (read+write) MSHR misses
system.l2.overall_mshr_misses::.cpu.inst         3004                       # number of overall MSHR misses
system.l2.overall_mshr_misses::.cpu.data        20830                       # number of overall MSHR misses
system.l2.overall_mshr_misses::total            23834                       # number of overall MSHR misses
system.l2.demand_mshr_miss_latency::.cpu.inst    199454000                       # number of demand (read+write) MSHR miss cycles
system.l2.demand_mshr_miss_latency::.cpu.data   1456420500                       # number of demand (read+write) MSHR miss cycles
system.l2.demand_mshr_miss_latency::total   1655874500                       # number of demand (read+write) MSHR miss cycles
system.l2.overall_mshr_miss_latency::.cpu.inst    199454000                       # number of overall MSHR miss cycles
system.l2.overall_mshr_miss_latency::.cpu.data   1456420500                       # number of overall MSHR miss cycles
system.l2.overall_mshr_miss_latency::total   1655874500                       # number of overall MSHR miss cycles
system.l2.demand_mshr_miss_rate::.cpu.inst     0.997013                       # mshr miss rate for demand accesses
system.l2.demand_mshr_miss_rate::.cpu.data     0.971684                       # mshr miss rate for demand accesses
system.l2.demand_mshr_miss_rate::total       0.974806                       # mshr miss rate for demand accesses
system.l2.overall_mshr_miss_rate::.cpu.inst     0.997013                       # mshr miss rate for overall accesses
system.l2.overall_mshr_miss_rate::.cpu.data     0.971684                       # mshr miss rate for overall accesses
system.l2.overall_mshr_miss_rate::total      0.974806                       # mshr miss rate for overall accesses
system.l2.demand_avg_mshr_miss_latency::.cpu.inst 66396.138482                       # average overall mshr miss latency
system.l2.demand_avg_mshr_miss_latency::.cpu.data 69919.371099                       # average overall mshr miss latency
system.l2.demand_avg_mshr_miss_latency::total 69475.308383                       # average overall mshr miss latency
system.l2.overall_avg_mshr_miss_latency::.cpu.inst 66396.138482                       # average overall mshr miss latency
system.l2.overall_avg_mshr_miss_latency::.cpu.data 69919.371099                       # average overall mshr miss latency
system.l2.overall_avg_mshr_miss_latency::total 69475.308383                       # average overall mshr miss latency
system.l2.replacements                          22761                       # number of replacements
system.l2.WritebackDirty_hits::.writebacks         3367                       # number of WritebackDirty hits
system.l2.WritebackDirty_hits::total             3367                       # number of WritebackDirty hits
system.l2.WritebackDirty_accesses::.writebacks         3367                       # number of WritebackDirty accesses(hits+misses)
system.l2.WritebackDirty_accesses::total         3367                       # number of WritebackDirty accesses(hits+misses)
system.l2.WritebackClean_hits::.writebacks          501                       # number of WritebackClean hits
system.l2.WritebackClean_hits::total              501                       # number of WritebackClean hits
system.l2.WritebackClean_accesses::.writebacks          501                       # number of WritebackClean accesses(hits+misses)
system.l2.WritebackClean_accesses::total          501                       # number of WritebackClean accesses(hits+misses)
system.l2.CleanEvict_mshr_misses::.writebacks         9445                       # number of CleanEvict MSHR misses
system.l2.CleanEvict_mshr_misses::total          9445                       # number of CleanEvict MSHR misses
system.l2.CleanEvict_mshr_miss_rate::.writebacks          inf                       # mshr miss rate for CleanEvict accesses
system.l2.CleanEvict_mshr_miss_rate::total          inf                       # mshr miss rate for CleanEvict accesses
system.l2.ReadExReq_hits::.cpu.data               264                       # number of ReadExReq hits
system.l2.ReadExReq_hits::total                   264                       # number of ReadExReq hits
system.l2.ReadExReq_misses::.cpu.data            4163                       # number of ReadExReq misses
system.l2.ReadExReq_misses::total                4163                       # number of ReadExReq misses
system.l2.ReadExReq_miss_latency::.cpu.data    322833500                       # number of ReadExReq miss cycles
system.l2.ReadExReq_miss_latency::total     322833500                       # number of ReadExReq miss cycles
system.l2.ReadExReq_accesses::.cpu.data          4427                       # number of ReadExReq accesses(hits+misses)
system.l2.ReadExReq_accesses::total              4427                       # number of ReadExReq accesses(hits+misses)
system.l2.ReadExReq_miss_rate::.cpu.data     0.940366                       # miss rate for ReadExReq accesses
system.l2.ReadExReq_miss_rate::total         0.940366                       # miss rate for ReadExReq accesses
system.l2.ReadExReq_avg_miss_latency::.cpu.data 77548.282489                       # average ReadExReq miss latency
system.l2.ReadExReq_avg_miss_latency::total 77548.282489                       # average ReadExReq miss latency
system.l2.ReadExReq_mshr_misses::.cpu.data         4163                       # number of ReadExReq MSHR misses
system.l2.ReadExReq_mshr_misses::total           4163                       # number of ReadExReq MSHR misses
system.l2.ReadExReq_mshr_miss_latency::.cpu.data    281203500                       # number of ReadExReq MSHR miss cycles
system.l2.ReadExReq_mshr_miss_latency::total    281203500                       # number of ReadExReq MSHR miss cycles
system.l2.ReadExReq_mshr_miss_rate::.cpu.data     0.940366                       # mshr miss rate for ReadExReq accesses
system.l2.ReadExReq_mshr_miss_rate::total     0.940366                       # mshr miss rate for ReadExReq accesses
system.l2.ReadExReq_avg_mshr_miss_latency::.cpu.data 67548.282489                       # average ReadExReq mshr miss latency
system.l2.ReadExReq_avg_mshr_miss_latency::total 67548.282489                       # average ReadExReq mshr miss latency
system.l2.ReadCleanReq_hits::.cpu.inst              9                       # number of ReadCleanReq hits
system.l2.ReadCleanReq_hits::total                  9                       # number of ReadCleanReq hits
system.l2.ReadCleanReq_misses::.cpu.inst         3004                       # number of ReadCleanReq misses
system.l2.ReadCleanReq_misses::total             3004                       # number of ReadCleanReq misses
system.l2.ReadCleanReq_miss_latency::.cpu.inst    229494000                       # number of ReadCleanReq miss cycles
system.l2.ReadCleanReq_miss_latency::total    229494000                       # number of ReadCleanReq miss cycles
system.l2.ReadCleanReq_accesses::.cpu.inst         3013                       # number of ReadCleanReq accesses(hits+misses)
system.l2.ReadCleanReq_accesses::total           3013                       # number of ReadCleanReq accesses(hits+misses)
system.l2.ReadCleanReq_miss_rate::.cpu.inst     0.997013                       # miss rate for ReadCleanReq accesses
system.l2.ReadCleanReq_miss_rate::total      0.997013                       # miss rate for ReadCleanReq accesses
system.l2.ReadCleanReq_avg_miss_latency::.cpu.inst 76396.138482                       # average ReadCleanReq miss latency
system.l2.ReadCleanReq_avg_miss_latency::total 76396.138482                       # average ReadCleanReq miss latency
system.l2.ReadCleanReq_mshr_misses::.cpu.inst         3004                       # number of ReadCleanReq MSHR misses
system.l2.ReadCleanReq_mshr_misses::total         3004                       # number of ReadCleanReq MSHR misses
system.l2.ReadCleanReq_mshr_miss_latency::.cpu.inst    199454000                       # number of ReadCleanReq MSHR miss cycles
system.l2.ReadCleanReq_mshr_miss_latency::total    199454000                       # number of ReadCleanReq MSHR miss cycles
system.l2.ReadCleanReq_mshr_miss_rate::.cpu.inst     0.997013                       # mshr miss rate for ReadCleanReq accesses
system.l2.ReadCleanReq_mshr_miss_rate::total     0.997013                       # mshr miss rate for ReadCleanReq accesses
system.l2.ReadCleanReq_avg_mshr_miss_latency::.cpu.inst 66396.138482                       # average ReadCleanReq mshr miss latency
system.l2.ReadCleanReq_avg_mshr_miss_latency::total 66396.138482                       # average ReadCleanReq mshr miss latency
system.l2.ReadSharedReq_hits::.cpu.data           343                       # number of ReadSharedReq hits
system.l2.ReadSharedReq_hits::total               343                       # number of ReadSharedReq hits
system.l2.ReadSharedReq_misses::.cpu.data        16667                       # number of ReadSharedReq misses
system.l2.ReadSharedReq_misses::total           16667                       # number of ReadSharedReq misses
system.l2.ReadSharedReq_miss_latency::.cpu.data   1341887000                       # number of ReadSharedReq miss cycles
system.l2.ReadSharedReq_miss_latency::total   1341887000                       # number of ReadSharedReq miss cycles
system.l2.ReadSharedReq_accesses::.cpu.data        17010                       # number of ReadSharedReq accesses(hits+misses)
system.l2.ReadSharedReq_accesses::total         17010                       # number of ReadSharedReq accesses(hits+misses)
system.l2.ReadSharedReq_miss_rate::.cpu.data     0.979835                       # miss rate for ReadSharedReq accesses
system.l2.ReadSharedReq_miss_rate::total     0.979835                       # miss rate for ReadSharedReq accesses
system.l2.ReadSharedReq_avg_miss_latency::.cpu.data 80511.609768                       # average ReadSharedReq miss latency
system.l2.ReadSharedReq_avg_miss_latency::total 80511.609768                       # average ReadSharedReq miss latency
system.l2.ReadSharedReq_mshr_misses::.cpu.data        16667                       # number of ReadSharedReq MSHR misses
system.l2.ReadSharedReq_mshr_misses::total        16667                       # number of ReadSharedReq MSHR misses
system.l2.ReadSharedReq_mshr_miss_latency::.cpu.data   1175217000                       # number of ReadSharedReq MSHR miss cycles
system.l2.ReadSharedReq_mshr_miss_latency::total   1175217000                       # number of ReadSharedReq MSHR miss cycles
system.l2.ReadSharedReq_mshr_miss_rate::.cpu.data     0.979835                       # mshr miss rate for ReadSharedReq accesses
system.l2.ReadSharedReq_mshr_miss_rate::total     0.979835                       # mshr miss rate for ReadSharedReq accesses
system.l2.ReadSharedReq_avg_mshr_miss_latency::.cpu.data 70511.609768                       # average ReadSharedReq mshr miss latency
system.l2.ReadSharedReq_avg_mshr_miss_latency::total 70511.609768                       # average ReadSharedReq mshr miss latency
system.l2.power_state.pwrStateResidencyTicks::UNDEFINED 187688357500                       # Cumulative time (in ticks) in various power states
system.l2.tags.tagsinuse                  4088.725081                       # Cycle average of tags in use
system.l2.tags.total_refs                       32847                       # Total number of references to valid blocks.
system.l2.tags.sampled_refs                     26857                       # Sample count of references to valid blocks.
system.l2.tags.avg_refs                      1.223033                       # Average number of references to valid blocks.
system.l2.tags.warmup_cycle                     77000                       # Cycle when the warmup percentage was hit.
system.l2.tags.occ_blocks::.writebacks     594.883095                       # Average occupied blocks per requestor
system.l2.tags.occ_blocks::.cpu.inst       849.014084                       # Average occupied blocks per requestor
system.l2.tags.occ_blocks::.cpu.data      2644.827902                       # Average occupied blocks per requestor
system.l2.tags.occ_percent::.writebacks      0.145235                       # Average percentage of cache occupancy
system.l2.tags.occ_percent::.cpu.inst        0.207279                       # Average percentage of cache occupancy
system.l2.tags.occ_percent::.cpu.data        0.645710                       # Average percentage of cache occupancy
system.l2.tags.occ_percent::total            0.998224                       # Average percentage of cache occupancy
system.l2.tags.occ_task_id_blocks::1024          4096                       # Occupied blocks per task id
system.l2.tags.age_task_id_blocks_1024::4         4096                       # Occupied blocks per task id
system.l2.tags.occ_task_id_percent::1024            1                       # Percentage of cache occupancy per task id
system.l2.tags.tag_accesses                    111441                       # Number of tag accesses
system.l2.tags.data_accesses                   111441                       # Number of data accesses
system.l2.tags.power_state.pwrStateResidencyTicks::UNDEFINED 187688357500                       # Cumulative time (in ticks) in various power states
system.mem_ctrls.avgPriority_.writebacks::samples      2385.00                       # Average QoS priority value for accepted requests
system.mem_ctrls.avgPriority_.cpu.inst::samples      3004.00                       # Average QoS priority value for accepted requests
system.mem_ctrls.avgPriority_.cpu.data::samples     20812.00                       # Average QoS priority value for accepted requests
system.mem_ctrls.priorityMinLatency      0.000000018750                       # per QoS priority minimum request to response latency (s)
system.mem_ctrls.priorityMaxLatency      0.001758134500                       # per QoS priority maximum request to response latency (s)
system.mem_ctrls.numReadWriteTurnArounds          137                       # Number of turnarounds from READ to WRITE
system.mem_ctrls.numWriteReadTurnArounds          137                       # Number of turnarounds from WRITE to READ
system.mem_ctrls.numStayReadState               98507                       # Number of times bus staying in READ state
system.mem_ctrls.numStayWriteState               2239                       # Number of times bus staying in WRITE state
system.mem_ctrls.readReqs                       23834                       # Number of read requests accepted
system.mem_ctrls.writeReqs                       2740                       # Number of write requests accepted
system.mem_ctrls.readBursts                     23834                       # Number of controller read bursts, including those serviced by the write queue
system.mem_ctrls.writeBursts                     2740                       # Number of controller write bursts, including those merged in the write queue
system.mem_ctrls.servicedByWrQ                     18                       # Number of controller read bursts serviced by the write queue
system.mem_ctrls.mergedWrBursts                   355                       # Number of controller write bursts merged with an existing one
system.mem_ctrls.neitherReadNorWriteReqs            0                       # Number of requests that are neither read nor write
system.mem_ctrls.avgRdQLen                       1.00                       # Average read queue length when enqueuing
system.mem_ctrls.avgWrQLen                      18.13                       # Average write queue length when enqueuing
system.mem_ctrls.numRdRetry                         0                       # Number of times read queue was full causing retry
system.mem_ctrls.numWrRetry                         0                       # Number of times write queue was full causing retry
system.mem_ctrls.readPktSize::0                     0                       # Read request sizes (log2)
system.mem_ctrls.readPktSize::1                     0                       # Read request sizes (log2)
system.mem_ctrls.readPktSize::2                     0                       # Read request sizes (log2)
system.mem_ctrls.readPktSize::3                     0                       # Read request sizes (log2)
system.mem_ctrls.readPktSize::4                     0                       # Read request sizes (log2)
system.mem_ctrls.readPktSize::5                 23834                       # Read request sizes (log2)
system.mem_ctrls.writePktSize::0                    0                       # Write request sizes (log2)
system.mem_ctrls.writePktSize::1                    0                       # Write request sizes (log2)
system.mem_ctrls.writePktSize::2                    0                       # Write request sizes (log2)
system.mem_ctrls.writePktSize::3                    0                       # Write request sizes (log2)
system.mem_ctrls.writePktSize::4                    0                       # Write request sizes (log2)
system.mem_ctrls.writePktSize::5                 2740                       # Write request sizes (log2)
system.mem_ctrls.rdQLenPdf::0                   23807                       # What read queue length does an incoming req see
system.mem_ctrls.rdQLenPdf::1                       9                       # What read queue length does an incoming req see
system.mem_ctrls.rdQLenPdf::2                       0                       # What read queue length does an incoming req see
system.mem_ctrls.rdQLenPdf::3                       0                       # What read queue length does an incoming req see
system.mem_ctrls.rdQLenPdf::4                       0                       # What read queue length does an incoming req see
system.mem_ctrls.rdQLenPdf::5                       0                       # What read queue length does an incoming req see
system.mem_ctrls.rdQLenPdf::6                       0                       # What read queue length does an incoming req see
system.mem_ctrls.rdQLenPdf::7                       0                       # What read queue length does an incoming req see
system.mem_ctrls.rdQLenPdf::8                       0                       # What read queue length does an incoming req see
system.mem_ctrls.rdQLenPdf::9                       0                       # What read queue length does an incoming req see
system.mem_ctrls.rdQLenPdf::10                      0                       # What read queue length does an incoming req see
system.mem_ctrls.rdQLenPdf::11                      0                       # What read queue length does an incoming req see
system.mem_ctrls.rdQLenPdf::12                      0                       # What read queue length does an incoming req see
system.mem_ctrls.rdQLenPdf::13                      0                       # What read queue length does an incoming req see
system.mem_ctrls.rdQLenPdf::14                      0                       # What read queue length does an incoming req see
system.mem_ctrls.rdQLenPdf::15                      0                       # What read queue length does an incoming req see
system.mem_ctrls.rdQLenPdf::16                      0                       # What read queue length does an incoming req see
system.mem_ctrls.rdQLenPdf::17                      0                       # What read queue length does an incoming req see
system.mem_ctrls.rdQLenPdf::18                      0                       # What read queue length does an incoming req see
system.mem_ctrls.rdQLenPdf::19                      0                       # What read queue length does an incoming req see
system.mem_ctrls.rdQLenPdf::20                      0                       # What read queue length does an incoming req see
system.mem_ctrls.rdQLenPdf::21                      0                       # What read queue length does an incoming req see
system.mem_ctrls.rdQLenPdf::22                      0                       # What read queue length does an incoming req see
system.mem_ctrls.rdQLenPdf::23                      0                       # What read queue length does an incoming req see
system.mem_ctrls.rdQLenPdf::24                      0                       # What read queue length does an incoming req see
system.mem_ctrls.rdQLenPdf::25                      0                       # What read queue length does an incoming req see
system.mem_ctrls.rdQLenPdf::26                      0                       # What read queue length does an incoming req see
system.mem_ctrls.rdQLenPdf::27                      0                       # What read queue length does an incoming req see
system.mem_ctrls.rdQLenPdf::28                      0                       # What read queue length does an incoming req see
system.mem_ctrls.rdQLenPdf::29                      0                       # What read queue length does an incoming req see
system.mem_ctrls.rdQLenPdf::30                      0                       # What read queue length does an incoming req see
system.mem_ctrls.rdQLenPdf::31                      0                       # What read queue length does an incoming req see
system.mem_ctrls.wrQLenPdf::0                       1                       # What write queue length does an incoming req see
system.mem_ctrls.wrQLenPdf::1                       1                       # What write queue length does an incoming req see
system.mem_ctrls.wrQLenPdf::2                       1                       # What write queue length does an incoming req see
system.mem_ctrls.wrQLenPdf::3                       1                       # What write queue length does an incoming req see
system.mem_ctrls.wrQLenPdf::4                       1                       # What write queue length does an incoming req see
system.mem_ctrls.wrQLenPdf::5                       1                       # What write queue length does an incoming req see
system.mem_ctrls.wrQLenPdf::6                       1                       # What write queue length does an incoming req see
system.mem_ctrls.wrQLenPdf::7                       1                       # What write queue length does an incoming req see
system.mem_ctrls.wrQLenPdf::8                       1                       # What write queue length does an incoming req see
system.mem_ctrls.wrQLenPdf::9                       1                       # What write queue length does an incoming req see
system.mem_ctrls.wrQLenPdf::10                      1                       # What write queue length does an incoming req see
system.mem_ctrls.wrQLenPdf::11                      1                       # What write queue length does an incoming req see
system.mem_ctrls.wrQLenPdf::12                      1                       # What write queue length does an incoming req see
system.mem_ctrls.wrQLenPdf::13                      1                       # What write queue length does an incoming req see
system.mem_ctrls.wrQLenPdf::14                      1                       # What write queue length does an incoming req see
system.mem_ctrls.wrQLenPdf::15                     85                       # What write queue length does an incoming req see
system.mem_ctrls.wrQLenPdf::16                     89                       # What write queue length does an incoming req see
system.mem_ctrls.wrQLenPdf::17                    138                       # What write queue length does an incoming req see
system.mem_ctrls.wrQLenPdf::18                    137                       # What write queue length does an incoming req see
system.mem_ctrls.wrQLenPdf::19                    137                       # What write queue length does an incoming req see
system.mem_ctrls.wrQLenPdf::20                    137                       # What write queue length does an incoming req see
system.mem_ctrls.wrQLenPdf::21                    137                       # What write queue length does an incoming req see
system.mem_ctrls.wrQLenPdf::22                    137                       # What write queue length does an incoming req see
system.mem_ctrls.wrQLenPdf::23                    137                       # What write queue length does an incoming req see
system.mem_ctrls.wrQLenPdf::24                    138                       # What write queue length does an incoming req see
system.mem_ctrls.wrQLenPdf::25                    139                       # What write queue length does an incoming req see
system.mem_ctrls.wrQLenPdf::26                    137                       # What write queue length does an incoming req see
system.mem_ctrls.wrQLenPdf::27                    137                       # What write queue length does an incoming req see
system.mem_ctrls.wrQLenPdf::28                    137                       # What write queue length does an incoming req see
system.mem_ctrls.wrQLenPdf::29                    137                       # What write queue length does an incoming req see
system.mem_ctrls.wrQLenPdf::30                    137                       # What write queue length does an incoming req see
system.mem_ctrls.wrQLenPdf::31                    137                       # What write queue length does an incoming req see
system.mem_ctrls.wrQLenPdf::32                    137                       # What write queue length does an incoming req see
system.mem_ctrls.wrQLenPdf::33                      0                       # What write queue length does an incoming req see
system.mem_ctrls.wrQLenPdf::34                      0                       # What write queue length does an incoming req see
system.mem_ctrls.wrQLenPdf::35                      0                       # What write queue length does an incoming req see
system.mem_ctrls.wrQLenPdf::36                      0                       # What write queue length does an incoming req see
system.mem_ctrls.wrQLenPdf::37                      0                       # What write queue length does an incoming req see
system.mem_ctrls.wrQLenPdf::38                      0                       # What write queue length does an incoming req see
system.mem_ctrls.wrQLenPdf::39                      0                       # What write queue length does an incoming req see
system.mem_ctrls.wrQLenPdf::40                      0                       # What write queue length does an incoming req see
system.mem_ctrls.wrQLenPdf::41                      0                       # What write queue length does an incoming req see
system.mem_ctrls.wrQLenPdf::42                      0                       # What write queue length does an incoming req see
system.mem_ctrls.wrQLenPdf::43                      0                       # What write queue length does an incoming req see
system.mem_ctrls.wrQLenPdf::44                      0                       # What write queue length does an incoming req see
system.mem_ctrls.wrQLenPdf::45                      0                       # What write queue length does an incoming req see
system.mem_ctrls.wrQLenPdf::46                      0                       # What write queue length does an incoming req see
system.mem_ctrls.wrQLenPdf::47                      0                       # What write queue length does an incoming req see
system.mem_ctrls.wrQLenPdf::48                      0                       # What write queue length does an incoming req see
system.mem_ctrls.wrQLenPdf::49                      0                       # What write queue length does an incoming req see
system.mem_ctrls.wrQLenPdf::50                      0                       # What write queue length does an incoming req see
system.mem_ctrls.wrQLenPdf::51                      0                       # What write queue length does an incoming req see
system.mem_ctrls.wrQLenPdf::52                      0                       # What write queue length does an incoming req see
system.mem_ctrls.wrQLenPdf::53                      0                       # What write queue length does an incoming req see
system.mem_ctrls.wrQLenPdf::54                      0                       # What write queue length does an incoming req see
system.mem_ctrls.wrQLenPdf::55                      0                       # What write queue length does an incoming req see
system.mem_ctrls.wrQLenPdf::56                      0                       # What write queue length does an incoming req see
system.mem_ctrls.wrQLenPdf::57                      0                       # What write queue length does an incoming req see
system.mem_ctrls.wrQLenPdf::58                      0                       # What write queue length does an incoming req see
system.mem_ctrls.wrQLenPdf::59                      0                       # What write queue length does an incoming req see
system.mem_ctrls.wrQLenPdf::60                      0                       # What write queue length does an incoming req see
system.mem_ctrls.wrQLenPdf::61                      0                       # What write queue length does an incoming req see
system.mem_ctrls.wrQLenPdf::62                      0                       # What write queue length does an incoming req see
system.mem_ctrls.wrQLenPdf::63                      0                       # What write queue length does an incoming req see
system.mem_ctrls.rdPerTurnAround::samples          137                       # Reads before turning the bus around for writes
system.mem_ctrls.rdPerTurnAround::mean     172.810219                       # Reads before turning the bus around for writes
system.mem_ctrls.rdPerTurnAround::gmean    107.193371                       # Reads before turning the bus around for writes
system.mem_ctrls.rdPerTurnAround::stdev    539.293486                       # Reads before turning the bus around for writes
system.mem_ctrls.rdPerTurnAround::0-255           127     92.70%     92.70% # Reads before turning the bus around for writes
system.mem_ctrls.rdPerTurnAround::256-511            8      5.84%     98.54% # Reads before turning the bus around for writes
system.mem_ctrls.rdPerTurnAround::768-1023            1      0.73%     99.27% # Reads before turning the bus around for writes
system.mem_ctrls.rdPerTurnAround::6144-6399            1      0.73%    100.00% # Reads before turning the bus around for writes
system.mem_ctrls.rdPerTurnAround::total           137                       # Reads before turning the bus around for writes
system.mem_ctrls.wrPerTurnAround::samples          137                       # Writes before turning the bus around for reads
system.mem_ctrls.wrPerTurnAround::mean      17.277372                       # Writes before turning the bus around for reads
system.mem_ctrls.wrPerTurnAround::gmean     17.249927                       # Writes before turning the bus around for reads
system.mem_ctrls.wrPerTurnAround::stdev      0.968093                       # Writes before turning the bus around for reads
system.mem_ctrls.wrPerTurnAround::16               48     35.04%     35.04% # Writes before turning the bus around for reads
system.mem_ctrls.wrPerTurnAround::17                5      3.65%     38.69% # Writes before turning the bus around for reads
system.mem_ctrls.wrPerTurnAround::18               82     59.85%     98.54% # Writes before turning the bus around for reads
system.mem_ctrls.wrPerTurnAround::19                2      1.46%    100.00% # Writes before turning the bus around for reads
system.mem_ctrls.wrPerTurnAround::total           137                       # Writes before turning the bus around for reads
system.mem_ctrls.bytesReadWrQ                    1152                       # Total number of bytes read from write queue
system.mem_ctrls.bytesReadSys                  762688                       # Total read bytes from the system interface side
system.mem_ctrls.bytesWrittenSys                87680                       # Total written bytes from the system interface side
system.mem_ctrls.avgRdBWSys                      4.06                       # Average system read bandwidth in MiByte/s
system.mem_ctrls.avgWrBWSys                      0.47                       # Average system write bandwidth in MiByte/s
system.mem_ctrls.totGap                   19608247500                       # Total gap between requests
system.mem_ctrls.avgGap                     737873.39                       # Average gap between requests
system.mem_ctrls.requestorReadBytes::.cpu.inst        96128                       # Per-requestor bytes read from memory
system.mem_ctrls.requestorReadBytes::.cpu.data       665984                       # Per-requestor bytes read from memory
system.mem_ctrls.requestorWriteBytes::.writebacks        75744                       # Per-requestor bytes write to memory
system.mem_ctrls.requestorReadRate::.cpu.inst 512168.156194770883                       # Per-requestor bytes read from memory rate (Bytes/sec)
system.mem_ctrls.requestorReadRate::.cpu.data 3548350.088790136855                       # Per-requestor bytes read from memory rate (Bytes/sec)
system.mem_ctrls.requestorWriteRate::.writebacks 403562.591781964933                       # Per-requestor bytes write to memory rate (Bytes/sec)
system.mem_ctrls.requestorReadAccesses::.cpu.inst         3004                       # Per-requestor read serviced memory accesses
system.mem_ctrls.requestorReadAccesses::.cpu.data        20830                       # Per-requestor read serviced memory accesses
system.mem_ctrls.requestorWriteAccesses::.writebacks         2740                       # Per-requestor write serviced memory accesses
system.mem_ctrls.requestorReadTotalLat::.cpu.inst     76841000                       # Per-requestor read total memory access latency
system.mem_ctrls.requestorReadTotalLat::.cpu.data    605402500                       # Per-requestor read total memory access latency
[...]
system.mem_ctrls.dram.bw_total::.cpu.data      3551419                       # Total bandwidth to/from this memory (bytes/s)
system.mem_ctrls.dram.bw_total::total         4530745                       # Total bandwidth to/from this memory (bytes/s)
system.mem_ctrls.dram.readBursts                23816                       # Number of DRAM read bursts
system.mem_ctrls.dram.writeBursts                2367                       # Number of DRAM write bursts
system.mem_ctrls.dram.perBankRdBursts::0         1480                       # Per bank write bursts
system.mem_ctrls.dram.perBankRdBursts::1         1516                       # Per bank write bursts
system.mem_ctrls.dram.perBankRdBursts::2         1926                       # Per bank write bursts
system.mem_ctrls.dram.perBankRdBursts::3         1501                       # Per bank write bursts
system.mem_ctrls.dram.perBankRdBursts::4         1801                       # Per bank write bursts
system.mem_ctrls.dram.perBankRdBursts::5         1774                       # Per bank write bursts
system.mem_ctrls.dram.perBankRdBursts::6         1764                       # Per bank write bursts
system.mem_ctrls.dram.perBankRdBursts::7         1111                       # Per bank write bursts
system.mem_ctrls.dram.perBankRdBursts::8         1196                       # Per bank write bursts
system.mem_ctrls.dram.perBankRdBursts::9         1511                       # Per bank write bursts
system.mem_ctrls.dram.perBankRdBursts::10         1410                       # Per bank write bursts
system.mem_ctrls.dram.perBankRdBursts::11         1510                       # Per bank write bursts
system.mem_ctrls.dram.perBankRdBursts::12         1765                       # Per bank write bursts
system.mem_ctrls.dram.perBankRdBursts::13         1503                       # Per bank write bursts
system.mem_ctrls.dram.perBankRdBursts::14         1046                       # Per bank write bursts
system.mem_ctrls.dram.perBankRdBursts::15         1002                       # Per bank write bursts
system.mem_ctrls.dram.perBankWrBursts::0            0                       # Per bank write bursts
system.mem_ctrls.dram.perBankWrBursts::1          313                       # Per bank write bursts
system.mem_ctrls.dram.perBankWrBursts::2          264                       # Per bank write bursts
system.mem_ctrls.dram.perBankWrBursts::3            2                       # Per bank write bursts
system.mem_ctrls.dram.perBankWrBursts::4          244                       # Per bank write bursts
system.mem_ctrls.dram.perBankWrBursts::5          105                       # Per bank write bursts
system.mem_ctrls.dram.perBankWrBursts::6          194                       # Per bank write bursts
system.mem_ctrls.dram.perBankWrBursts::7          103                       # Per bank write bursts
system.mem_ctrls.dram.perBankWrBursts::8          104                       # Per bank write bursts
system.mem_ctrls.dram.perBankWrBursts::9          424                       # Per bank write bursts
system.mem_ctrls.dram.perBankWrBursts::10          263                       # Per bank write bursts
system.mem_ctrls.dram.perBankWrBursts::11          143                       # Per bank write bursts
system.mem_ctrls.dram.perBankWrBursts::12          167                       # Per bank write bursts
system.mem_ctrls.dram.perBankWrBursts::13           41                       # Per bank write bursts
system.mem_ctrls.dram.perBankWrBursts::14            0                       # Per bank write bursts
system.mem_ctrls.dram.perBankWrBursts::15            0                       # Per bank write bursts
system.mem_ctrls.dram.totQLat               235693500                       # Total ticks spent queuing
system.mem_ctrls.dram.totBusLat             119080000                       # Total ticks spent in databus transfers
system.mem_ctrls.dram.totMemAccLat          682243500                       # Total ticks spent from burst creation until serviced by the DRAM
system.mem_ctrls.dram.avgQLat                 9896.44                       # Average queueing delay per DRAM burst
system.mem_ctrls.dram.avgBusLat               5000.00                       # Average bus latency per DRAM burst
system.mem_ctrls.dram.avgMemAccLat           28646.44                       # Average memory access latency per DRAM burst
system.mem_ctrls.dram.readRowHits               15823                       # Number of row buffer hits during reads
system.mem_ctrls.dram.writeRowHits               1783                       # Number of row buffer hits during writes
system.mem_ctrls.dram.readRowHitRate            66.44                       # Row buffer hit rate for reads
system.mem_ctrls.dram.writeRowHitRate           75.33                       # Row buffer hit rate for writes
system.mem_ctrls.dram.bytesPerActivate::samples         8577                       # Bytes accessed per row activation
system.mem_ctrls.dram.bytesPerActivate::mean   195.372741                       # Bytes accessed per row activation
system.mem_ctrls.dram.bytesPerActivate::gmean   124.428321                       # Bytes accessed per row activation
system.mem_ctrls.dram.bytesPerActivate::stdev   240.362095                       # Bytes accessed per row activation
system.mem_ctrls.dram.bytesPerActivate::0-127         4425     51.59%     51.59% # Bytes accessed per row activation
system.mem_ctrls.dram.bytesPerActivate::128-255         2276     26.54%     78.13% # Bytes accessed per row activation
system.mem_ctrls.dram.bytesPerActivate::256-383          656      7.65%     85.78% # Bytes accessed per row activation
system.mem_ctrls.dram.bytesPerActivate::384-511          323      3.77%     89.54% # Bytes accessed per row activation
system.mem_ctrls.dram.bytesPerActivate::512-639          238      2.77%     92.32% # Bytes accessed per row activation
system.mem_ctrls.dram.bytesPerActivate::640-767          123      1.43%     93.75% # Bytes accessed per row activation
system.mem_ctrls.dram.bytesPerActivate::768-895           74      0.86%     94.61% # Bytes accessed per row activation
system.mem_ctrls.dram.bytesPerActivate::896-1023           51      0.59%     95.21% # Bytes accessed per row activation
system.mem_ctrls.dram.bytesPerActivate::1024-1151          411      4.79%    100.00% # Bytes accessed per row activation
system.mem_ctrls.dram.bytesPerActivate::total         8577                       # Bytes accessed per row activation
system.mem_ctrls.dram.bytesRead               1524224                       # Total number of bytes read from DRAM
system.mem_ctrls.dram.bytesWritten             151488                       # Total number of bytes written to DRAM
system.mem_ctrls.dram.avgRdBW                8.121036                       # Average DRAM read bandwidth in MiBytes/s
system.mem_ctrls.dram.avgWrBW                0.807125                       # Average DRAM write bandwidth in MiBytes/s
system.mem_ctrls.dram.peakBW                 12800.00                       # Theoretical peak bandwidth in MiByte/s
system.mem_ctrls.dram.busUtil                    0.07                       # Data bus utilization in percentage
system.mem_ctrls.dram.busUtilRead                0.06                       # Data bus utilization in percentage for reads
system.mem_ctrls.dram.busUtilWrite               0.01                       # Data bus utilization in percentage for writes
system.mem_ctrls.dram.pageHitRate               67.24                       # Row buffer hit rate, read and write combined
system.mem_ctrls.dram.power_state.pwrStateResidencyTicks::UNDEFINED 187688357500                       # Cumulative time (in ticks) in various power states
system.mem_ctrls.dram.rank0.actEnergy        32272800                       # Energy for activate commands per rank (pJ)
system.mem_ctrls.dram.rank0.preEnergy        17153400                       # Energy for precharge commands per rank (pJ)
system.mem_ctrls.dram.rank0.readEnergy       91913220                       # Energy for read commands per rank (pJ)
system.mem_ctrls.dram.rank0.writeEnergy       6394500                       # Energy for write commands per rank (pJ)
system.mem_ctrls.dram.rank0.refreshEnergy 14815897200.000002                       # Energy for refresh commands per rank (pJ)
system.mem_ctrls.dram.rank0.actBackEnergy   4906446000                       # Energy for active background per rank (pJ)
system.mem_ctrls.dram.rank0.preBackEnergy  67940585280                       # Energy for precharge background per rank (pJ)
system.mem_ctrls.dram.rank0.actPowerDownEnergy            0                       # Energy for active power-down per rank (pJ)
system.mem_ctrls.dram.rank0.prePowerDownEnergy            0                       # Energy for precharge power-down per rank (pJ)
system.mem_ctrls.dram.rank0.selfRefreshEnergy            0                       # Energy for self refresh per rank (pJ)
system.mem_ctrls.dram.rank0.totalEnergy   87810662400                       # Total energy per rank (pJ)
system.mem_ctrls.dram.rank0.averagePower   467.853540                       # Core power per rank (mW)
system.mem_ctrls.dram.rank0.totalIdleTime            0                       # Total Idle time Per DRAM Rank
system.mem_ctrls.dram.rank0.pwrStateTime::IDLE 176582393250                       # Time in different power states
system.mem_ctrls.dram.rank0.pwrStateTime::REF   6267300000                       # Time in different power states
system.mem_ctrls.dram.rank0.pwrStateTime::SREF            0                       # Time in different power states
system.mem_ctrls.dram.rank0.pwrStateTime::PRE_PDN            0                       # Time in different power states
system.mem_ctrls.dram.rank0.pwrStateTime::ACT   4838664250                       # Time in different power states
system.mem_ctrls.dram.rank0.pwrStateTime::ACT_PDN            0                       # Time in different power states
system.mem_ctrls.dram.rank1.actEnergy        28966980                       # Energy for activate commands per rank (pJ)
system.mem_ctrls.dram.rank1.preEnergy        15396315                       # Energy for precharge commands per rank (pJ)
system.mem_ctrls.dram.rank1.readEnergy       78133020                       # Energy for read commands per rank (pJ)
system.mem_ctrls.dram.rank1.writeEnergy       5961240                       # Energy for write commands per rank (pJ)
system.mem_ctrls.dram.rank1.refreshEnergy 14815897200.000002                       # Energy for refresh commands per rank (pJ)
system.mem_ctrls.dram.rank1.actBackEnergy   4903740210                       # Energy for active background per rank (pJ)
system.mem_ctrls.dram.rank1.preBackEnergy  67942863840                       # Energy for precharge background per rank (pJ)
system.mem_ctrls.dram.rank1.actPowerDownEnergy            0                       # Energy for active power-down per rank (pJ)
system.mem_ctrls.dram.rank1.prePowerDownEnergy            0                       # Energy for precharge power-down per rank (pJ)
system.mem_ctrls.dram.rank1.selfRefreshEnergy            0                       # Energy for self refresh per rank (pJ)
system.mem_ctrls.dram.rank1.totalEnergy   87790958805                       # Total energy per rank (pJ)
system.mem_ctrls.dram.rank1.averagePower   467.748559                       # Core power per rank (mW)
system.mem_ctrls.dram.rank1.totalIdleTime            0                       # Total Idle time Per DRAM Rank
system.mem_ctrls.dram.rank1.pwrStateTime::IDLE 176591224750                       # Time in different power states
system.mem_ctrls.dram.rank1.pwrStateTime::REF   6267300000                       # Time in different power states
system.mem_ctrls.dram.rank1.pwrStateTime::SREF            0                       # Time in different power states
system.mem_ctrls.dram.rank1.pwrStateTime::PRE_PDN            0                       # Time in different power states
system.mem_ctrls.dram.rank1.pwrStateTime::ACT   4829832750                       # Time in different power states
system.mem_ctrls.dram.rank1.pwrStateTime::ACT_PDN            0                       # Time in different power states
system.mem_ctrls.power_state.pwrStateResidencyTicks::UNDEFINED 187688357500                       # Cumulative time (in ticks) in various power states
system.membus.trans_dist::ReadResp              19671                       # Transaction distribution
system.membus.trans_dist::WritebackDirty         2740                       # Transaction distribution
system.membus.trans_dist::CleanEvict            13289                       # Transaction distribution
system.membus.trans_dist::ReadExReq              4163                       # Transaction distribution
system.membus.trans_dist::ReadExResp             4163                       # Transaction distribution
system.membus.trans_dist::ReadSharedReq         19671                       # Transaction distribution
system.membus.pkt_count_system.l2.mem_side_port::system.mem_ctrls.port        63697                       # Packet count per connected requestor and responder (bytes)
system.membus.pkt_count_system.l2.mem_side_port::total        63697                       # Packet count per connected requestor and responder (bytes)
system.membus.pkt_count::total                  63697                       # Packet count per connected requestor and responder (bytes)
system.membus.pkt_size_system.l2.mem_side_port::system.mem_ctrls.port       850368                       # Cumulative packet size per connected requestor and responder (bytes)
system.membus.pkt_size_system.l2.mem_side_port::total       850368                       # Cumulative packet size per connected requestor and responder (bytes)
system.membus.pkt_size::total                  850368                       # Cumulative packet size per connected requestor and responder (bytes)
system.membus.snoops                                0                       # Total snoops (count)
system.membus.snoopTraffic                          0                       # Total snoop traffic (bytes)
system.membus.snoop_fanout::samples             23834                       # Request fanout histogram
system.membus.snoop_fanout::mean                    0                       # Request fanout histogram
system.membus.snoop_fanout::stdev                   0                       # Request fanout histogram
system.membus.snoop_fanout::underflows              0      0.00%      0.00% # Request fanout histogram
system.membus.snoop_fanout::0                   23834    100.00%    100.00% # Request fanout histogram
system.membus.snoop_fanout::1                       0      0.00%    100.00% # Request fanout histogram
system.membus.snoop_fanout::overflows               0      0.00%    100.00% # Request fanout histogram
system.membus.snoop_fanout::min_value               0                       # Request fanout histogram
system.membus.snoop_fanout::max_value               0                       # Request fanout histogram
system.membus.snoop_fanout::total               23834                       # Request fanout histogram
system.membus.power_state.pwrStateResidencyTicks::UNDEFINED 187688357500                       # Cumulative time (in ticks) in various power states
system.membus.reqLayer2.occupancy            45365500                       # Layer occupancy (ticks)
system.membus.reqLayer2.utilization               0.0                       # Layer utilization (%)
system.membus.respLayer1.occupancy           79996500                       # Layer occupancy (ticks)
system.membus.respLayer1.utilization              0.0                       # Layer utilization (%)
system.tol2bus.trans_dist::ReadResp             20023                       # Transaction distribution
system.tol2bus.trans_dist::WritebackDirty         6107                       # Transaction distribution
system.tol2bus.trans_dist::WritebackClean          501                       # Transaction distribution
system.tol2bus.trans_dist::CleanEvict           33995                       # Transaction distribution
system.tol2bus.trans_dist::ReadExReq             4427                       # Transaction distribution
system.tol2bus.trans_dist::ReadExResp            4427                       # Transaction distribution
system.tol2bus.trans_dist::ReadCleanReq          3013                       # Transaction distribution
system.tol2bus.trans_dist::ReadSharedReq        17010                       # Transaction distribution
system.tol2bus.pkt_count_system.cpu.icache.mem_side_port::system.l2.cpu_side_port         6527                       # Packet count per connected requestor and responder (bytes)
system.tol2bus.pkt_count_system.cpu.dcache.mem_side_port::system.l2.cpu_side_port        60215                       # Packet count per connected requestor and responder (bytes)
system.tol2bus.pkt_count::total                 66742                       # Packet count per connected requestor and responder (bytes)
system.tol2bus.pkt_size_system.cpu.icache.mem_side_port::system.l2.cpu_side_port       112448                       # Cumulative packet size per connected requestor and responder (bytes)
system.tol2bus.pkt_size_system.cpu.dcache.mem_side_port::system.l2.cpu_side_port       793728                       # Cumulative packet size per connected requestor and responder (bytes)
system.tol2bus.pkt_size::total                 906176                       # Cumulative packet size per connected requestor and responder (bytes)
system.tol2bus.snoops                           22761                       # Total snoops (count)
system.tol2bus.snoopTraffic                     87680                       # Total snoop traffic (bytes)
system.tol2bus.snoop_fanout::samples            47211                       # Request fanout histogram
system.tol2bus.snoop_fanout::mean            0.342653                       # Request fanout histogram
system.tol2bus.snoop_fanout::stdev           0.474602                       # Request fanout histogram
system.tol2bus.snoop_fanout::underflows             0      0.00%      0.00% # Request fanout histogram
system.tol2bus.snoop_fanout::0                  31034     65.73%     65.73% # Request fanout histogram
system.tol2bus.snoop_fanout::1                  16177     34.27%    100.00% # Request fanout histogram
system.tol2bus.snoop_fanout::2                      0      0.00%    100.00% # Request fanout histogram
system.tol2bus.snoop_fanout::3                      0      0.00%    100.00% # Request fanout histogram
system.tol2bus.snoop_fanout::4                      0      0.00%    100.00% # Request fanout histogram
system.tol2bus.snoop_fanout::overflows              0      0.00%    100.00% # Request fanout histogram
system.tol2bus.snoop_fanout::min_value              0                       # Request fanout histogram
system.tol2bus.snoop_fanout::max_value              1                       # Request fanout histogram
system.tol2bus.snoop_fanout::total              47211                       # Request fanout histogram
system.tol2bus.power_state.pwrStateResidencyTicks::UNDEFINED 187688357500                       # Cumulative time (in ticks) in various power states
system.tol2bus.reqLayer0.occupancy           23080000                       # Layer occupancy (ticks)
system.tol2bus.reqLayer0.utilization              0.0                       # Layer utilization (%)
system.tol2bus.respLayer0.occupancy           3013000                       # Layer occupancy (ticks)
system.tol2bus.respLayer0.utilization             0.0                       # Layer utilization (%)
system.tol2bus.respLayer1.occupancy          21437000                       # Layer occupancy (ticks)
system.tol2bus.respLayer1.utilization             0.0                       # Layer utilization (%)
system.voltage_domain.voltage                       1                       # Voltage in Volts

---------- End Simulation Statistics   ----------
