
---------- Begin Simulation Statistics ----------
final_tick                               187681981500                       # Number of ticks from beginning of simulation (restored from checkpoints and never reset)
host_inst_rate                                 424572                       # Simulator instruction rate (inst/s)
host_mem_usage                                 703336                       # Number of bytes of host memory used
host_op_rate                                   671271                       # Simulator op (including micro ops) rate (op/s)
host_seconds                                   235.53                       # Real time elapsed on the host
host_tick_rate                              796844281                       # Simulator tick rate (ticks/s)
sim_freq                                 1000000000000                       # Frequency of simulated ticks
sim_insts                                   100000001                       # Number of instructions simulated
sim_ops                                     158105592                       # Number of ops (including micro ops) simulated
sim_seconds                                  0.187682                       # Number of seconds simulated
sim_ticks                                187681981500                       # Number of ticks simulated
system.cpu.Branches                           8068245                       # Number of branches fetched
system.cpu.committedInsts                   100000001                       # Number of instructions committed
system.cpu.committedOps                     158105592                       # Number of ops (including micro ops) committed
system.cpu.idle_fraction                            0                       # Percentage of idle cycles
system.cpu.not_idle_fraction                        1                       # Percentage of non-idle cycles
system.cpu.numCycles                        375363963                       # number of cpu cycles simulated
system.cpu.numWorkItemsCompleted                    0                       # number of work items this cpu completed
system.cpu.numWorkItemsStarted                      0                       # number of work items this cpu started
system.cpu.num_busy_cycles                  375363963                       # Number of busy cycles
system.cpu.num_cc_register_reads             26309364                       # number of times the CC registers were read
system.cpu.num_cc_register_writes            50490369                       # number of times the CC registers were written
system.cpu.num_conditional_control_insts      4194429                       # number of instructions that are conditional controls
system.cpu.num_fp_alu_accesses               33007950                       # Number of float alu accesses
system.cpu.num_fp_insts                      33007950                       # number of float instructions
system.cpu.num_fp_register_reads             36021489                       # number of times the floating registers were read
system.cpu.num_fp_register_writes            28984633                       # number of times the floating registers were written
system.cpu.num_func_calls                      911313                       # number of times a function call or return occured
system.cpu.num_idle_cycles                          0                       # Number of idle cycles
system.cpu.num_int_alu_accesses             137710574                       # Number of integer alu accesses
system.cpu.num_int_insts                    137710574                       # number of integer instructions
system.cpu.num_int_register_reads           303623416                       # number of times the integer registers were read
system.cpu.num_int_register_writes          116067071                       # number of times the integer registers were written
system.cpu.num_load_insts                    42950395                       # Number of load instructions
system.cpu.num_mem_refs                      50914575                       # number of memory refs
system.cpu.num_store_insts                    7964180                       # Number of store instructions
system.cpu.num_vec_alu_accesses                     0                       # Number of vector alu accesses
system.cpu.num_vec_insts                            0                       # number of vector instructions
system.cpu.num_vec_register_reads                   0                       # number of times the vector registers were read
system.cpu.num_vec_register_writes                  0                       # number of times the vector registers were written
system.cpu.op_class::No_OpClass                737110      0.47%      0.47% # Class of executed instruction
system.cpu.op_class::IntAlu                  83725076     52.96%     53.42% # Class of executed instruction
system.cpu.op_class::IntMult                  3991004      2.52%     55.95% # Class of executed instruction
system.cpu.op_class::IntDiv                     35934      0.02%     55.97% # Class of executed instruction
system.cpu.op_class::FloatAdd                 7424559      4.70%     60.66% # Class of executed instruction
system.cpu.op_class::FloatCmp                       0      0.00%     60.66% # Class of executed instruction
system.cpu.op_class::FloatCvt                    1104      0.00%     60.66% # Class of executed instruction
system.cpu.op_class::FloatMult                      0      0.00%     60.66% # Class of executed instruction
system.cpu.op_class::FloatMultAcc                   0      0.00%     60.66% # Class of executed instruction
system.cpu.op_class::FloatDiv                       0      0.00%     60.66% # Class of executed instruction
system.cpu.op_class::FloatMisc                      0      0.00%     60.66% # Class of executed instruction
system.cpu.op_class::FloatSqrt                      0      0.00%     60.66% # Class of executed instruction
system.cpu.op_class::SimdAdd                     6594      0.00%     60.67% # Class of executed instruction
system.cpu.op_class::SimdAddAcc                     0      0.00%     60.67% # Class of executed instruction
system.cpu.op_class::SimdAlu                  2217297      1.40%     62.07% # Class of executed instruction
system.cpu.op_class::SimdCmp                        0      0.00%     62.07% # Class of executed instruction
system.cpu.op_class::SimdCvt                    13550      0.01%     62.08% # Class of executed instruction
system.cpu.op_class::SimdMisc                 1026602      0.65%     62.73% # Class of executed instruction
system.cpu.op_class::SimdMult                       0      0.00%     62.73% # Class of executed instruction
system.cpu.op_class::SimdMultAcc                    0      0.00%     62.73% # Class of executed instruction
system.cpu.op_class::SimdShift                    341      0.00%     62.73% # Class of executed instruction
system.cpu.op_class::SimdShiftAcc                   0      0.00%     62.73% # Class of executed instruction
system.cpu.op_class::SimdDiv                        0      0.00%     62.73% # Class of executed instruction
system.cpu.op_class::SimdSqrt                       0      0.00%     62.73% # Class of executed instruction
system.cpu.op_class::SimdFloatAdd             3435965      2.17%     64.90% # Class of executed instruction
system.cpu.op_class::SimdFloatAlu                   0      0.00%     64.90% # Class of executed instruction
system.cpu.op_class::SimdFloatCmp                   0      0.00%     64.90% # Class of executed instruction
system.cpu.op_class::SimdFloatCvt              516159      0.33%     65.23% # Class of executed instruction
system.cpu.op_class::SimdFloatDiv              103976      0.07%     65.30% # Class of executed instruction
system.cpu.op_class::SimdFloatMisc                  0      0.00%     65.30% # Class of executed instruction
system.cpu.op_class::SimdFloatMult            3955815      2.50%     67.80% # Class of executed instruction
system.cpu.op_class::SimdFloatMultAcc               0      0.00%     67.80% # Class of executed instruction
system.cpu.op_class::SimdFloatSqrt                256      0.00%     67.80% # Class of executed instruction
system.cpu.op_class::SimdReduceAdd                  0      0.00%     67.80% # Class of executed instruction
system.cpu.op_class::SimdReduceAlu                  0      0.00%     67.80% # Class of executed instruction
system.cpu.op_class::SimdReduceCmp                  0      0.00%     67.80% # Class of executed instruction
system.cpu.op_class::SimdFloatReduceAdd             0      0.00%     67.80% # Class of executed instruction
system.cpu.op_class::SimdFloatReduceCmp             0      0.00%     67.80% # Class of executed instruction
system.cpu.op_class::SimdAes                        0      0.00%     67.80% # Class of executed instruction
system.cpu.op_class::SimdAesMix                     0      0.00%     67.80% # Class of executed instruction
system.cpu.op_class::SimdSha1Hash                   0      0.00%     67.80% # Class of executed instruction
system.cpu.op_class::SimdSha1Hash2                  0      0.00%     67.80% # Class of executed instruction
system.cpu.op_class::SimdSha256Hash                 0      0.00%     67.80% # Class of executed instruction
system.cpu.op_class::SimdSha256Hash2                0      0.00%     67.80% # Class of executed instruction
system.cpu.op_class::SimdShaSigma2                  0      0.00%     67.80% # Class of executed instruction
system.cpu.op_class::SimdShaSigma3                  0      0.00%     67.80% # Class of executed instruction
system.cpu.op_class::SimdPredAlu                    0      0.00%     67.80% # Class of executed instruction
system.cpu.op_class::MemRead                 33643170     21.28%     89.08% # Class of executed instruction
system.cpu.op_class::MemWrite                 4944921      3.13%     92.20% # Class of executed instruction
system.cpu.op_class::FloatMemRead             9307225      5.89%     98.09% # Class of executed instruction
system.cpu.op_class::FloatMemWrite            3019259      1.91%    100.00% # Class of executed instruction
system.cpu.op_class::IprAccess                      0      0.00%    100.00% # Class of executed instruction
system.cpu.op_class::InstPrefetch                   0      0.00%    100.00% # Class of executed instruction
system.cpu.op_class::total                  158105917                       # Class of executed instruction
system.cpu.workload.numSyscalls                    68                       # Number of system calls
system.membus.snoop_filter.hit_multi_requests            0                       # Number of requests hitting in the snoop filter with multiple (>1) holders of the requested data.
system.membus.snoop_filter.hit_multi_snoops            0                       # Number of snoops hitting in the snoop filter with multiple (>1) holders of the requested data.
system.membus.snoop_filter.hit_single_requests        15986                       # Number of requests hitting in the snoop filter with a single holder of the requested data.
system.membus.snoop_filter.hit_single_snoops            0                       # Number of snoops hitting in the snoop filter with a single holder of the requested data.
system.membus.snoop_filter.tot_requests         39797                       # Total number of requests made to the snoop filter.
system.membus.snoop_filter.tot_snoops               0                       # Total number of snoops made to the snoop filter.
system.tol2bus.snoop_filter.hit_multi_requests            0                       # Number of requests hitting in the snoop filter with multiple (>1) holders of the requested data.
system.tol2bus.snoop_filter.hit_multi_snoops            0                       # Number of snoops hitting in the snoop filter with multiple (>1) holders of the requested data.
system.tol2bus.snoop_filter.hit_single_requests        17799                       # Number of requests hitting in the snoop filter with a single holder of the requested data.
system.tol2bus.snoop_filter.hit_single_snoops        16067                       # Number of snoops hitting in the snoop filter with a single holder of the requested data.
system.tol2bus.snoop_filter.tot_requests        42206                       # Total number of requests made to the snoop filter.
system.tol2bus.snoop_filter.tot_snoops          16067                       # Total number of snoops made to the snoop filter.
system.clk_domain.clock                          1000                       # Clock period in ticks
system.cpu.dcache.demand_hits::.cpu.data     50893231                       # number of demand (read+write) hits
system.cpu.dcache.demand_hits::total         50893231                       # number of demand (read+write) hits
system.cpu.dcache.overall_hits::.cpu.data     50893231                       # number of overall hits
system.cpu.dcache.overall_hits::total        50893231                       # number of overall hits
system.cpu.dcache.demand_misses::.cpu.data        21394                       # number of demand (read+write) misses
system.cpu.dcache.demand_misses::total          21394                       # number of demand (read+write) misses
system.cpu.dcache.overall_misses::.cpu.data        21394                       # number of overall misses
system.cpu.dcache.overall_misses::total         21394                       # number of overall misses
system.cpu.dcache.demand_miss_latency::.cpu.data   1719130500                       # number of demand (read+write) miss cycles
system.cpu.dcache.demand_miss_latency::total   1719130500                       # number of demand (read+write) miss cycles
system.cpu.dcache.overall_miss_latency::.cpu.data   1719130500                       # number of overall miss cycles
system.cpu.dcache.overall_miss_latency::total   1719130500                       # number of overall miss cycles
system.cpu.dcache.demand_accesses::.cpu.data     50914625                       # number of demand (read+write) accesses
system.cpu.dcache.demand_accesses::total     50914625                       # number of demand (read+write) accesses
system.cpu.dcache.overall_accesses::.cpu.data     50914625                       # number of overall (read+write) accesses
system.cpu.dcache.overall_accesses::total     50914625                       # number of overall (read+write) accesses
system.cpu.dcache.demand_miss_rate::.cpu.data     0.000420                       # miss rate for demand accesses
system.cpu.dcache.demand_miss_rate::total     0.000420                       # miss rate for demand accesses
system.cpu.dcache.overall_miss_rate::.cpu.data     0.000420                       # miss rate for overall accesses
system.cpu.dcache.overall_miss_rate::total     0.000420                       # miss rate for overall accesses
system.cpu.dcache.demand_avg_miss_latency::.cpu.data 80355.730579                       # average overall miss latency
system.cpu.dcache.demand_avg_miss_latency::total 80355.730579                       # average overall miss latency
system.cpu.dcache.overall_avg_miss_latency::.cpu.data 80355.730579                       # average overall miss latency
system.cpu.dcache.overall_avg_miss_latency::total 80355.730579                       # average overall miss latency
system.cpu.dcache.blocked_cycles::no_mshrs            0                       # number of cycles access was blocked
system.cpu.dcache.blocked_cycles::no_targets            0                       # number of cycles access was blocked
system.cpu.dcache.blocked::no_mshrs                 0                       # number of cycles access was blocked
system.cpu.dcache.blocked::no_targets               0                       # number of cycles access was blocked
system.cpu.dcache.avg_blocked_cycles::no_mshrs          nan                       # average number of cycles each access was blocked
system.cpu.dcache.avg_blocked_cycles::no_targets          nan                       # average number of cycles each access was blocked
system.cpu.dcache.writebacks::.writebacks         3357                       # number of writebacks
system.cpu.dcache.writebacks::total              3357                       # number of writebacks
system.cpu.dcache.demand_mshr_misses::.cpu.data        21394                       # number of demand (read+write) MSHR misses
system.cpu.dcache.demand_mshr_misses::total        21394                       # number of demand (read+write) MSHR misses
system.cpu.dcache.overall_mshr_misses::.cpu.data        21394                       # number of overall MSHR misses
system.cpu.dcache.overall_mshr_misses::total        21394                       # number of overall MSHR misses
system.cpu.dcache.demand_mshr_miss_latency::.cpu.data   1697736500                       # number of demand (read+write) MSHR miss cycles
system.cpu.dcache.demand_mshr_miss_latency::total   1697736500                       # number of demand (read+write) MSHR miss cycles
system.cpu.dcache.overall_mshr_miss_latency::.cpu.data   1697736500                       # number of overall MSHR miss cycles
system.cpu.dcache.overall_mshr_miss_latency::total   1697736500                       # number of overall MSHR miss cycles
system.cpu.dcache.demand_mshr_miss_rate::.cpu.data     0.000420                       # mshr miss rate for demand accesses
system.cpu.dcache.demand_mshr_miss_rate::total     0.000420                       # mshr miss rate for demand accesses
system.cpu.dcache.overall_mshr_miss_rate::.cpu.data     0.000420                       # mshr miss rate for overall accesses
system.cpu.dcache.overall_mshr_miss_rate::total     0.000420                       # mshr miss rate for overall accesses
system.cpu.dcache.demand_avg_mshr_miss_latency::.cpu.data 79355.730579                       # average overall mshr miss latency
system.cpu.dcache.demand_avg_mshr_miss_latency::total 79355.730579                       # average overall mshr miss latency
system.cpu.dcache.overall_avg_mshr_miss_latency::.cpu.data 79355.730579                       # average overall mshr miss latency
system.cpu.dcache.overall_avg_mshr_miss_latency::total 79355.730579                       # average overall mshr miss latency
system.cpu.dcache.replacements                  17298                       # number of replacements
system.cpu.dcache.ReadReq_hits::.cpu.data     42933498                       # number of ReadReq hits
system.cpu.dcache.ReadReq_hits::total        42933498                       # number of ReadReq hits
system.cpu.dcache.ReadReq_misses::.cpu.data        16975                       # number of ReadReq misses
system.cpu.dcache.ReadReq_misses::total         16975                       # number of ReadReq misses
system.cpu.dcache.ReadReq_miss_latency::.cpu.data   1383296500                       # number of ReadReq miss cycles
system.cpu.dcache.ReadReq_miss_latency::total   1383296500                       # number of ReadReq miss cycles
system.cpu.dcache.ReadReq_accesses::.cpu.data     42950473                       # number of ReadReq accesses(hits+misses)
system.cpu.dcache.ReadReq_accesses::total     42950473                       # number of ReadReq accesses(hits+misses)
system.cpu.dcache.ReadReq_miss_rate::.cpu.data     0.000395                       # miss rate for ReadReq accesses
system.cpu.dcache.ReadReq_miss_rate::total     0.000395                       # miss rate for ReadReq accesses
system.cpu.dcache.ReadReq_avg_miss_latency::.cpu.data 81490.220913                       # average ReadReq miss latency
system.cpu.dcache.ReadReq_avg_miss_latency::total 81490.220913                       # average ReadReq miss latency
system.cpu.dcache.ReadReq_mshr_misses::.cpu.data        16975                       # number of ReadReq MSHR misses
system.cpu.dcache.ReadReq_mshr_misses::total        16975                       # number of ReadReq MSHR misses
system.cpu.dcache.ReadReq_mshr_miss_latency::.cpu.data   1366321500                       # number of ReadReq MSHR miss cycles
system.cpu.dcache.ReadReq_mshr_miss_latency::total   1366321500                       # number of ReadReq MSHR miss cycles
system.cpu.dcache.ReadReq_mshr_miss_rate::.cpu.data     0.000395                       # mshr miss rate for ReadReq accesses
system.cpu.dcache.ReadReq_mshr_miss_rate::total     0.000395                       # mshr miss rate for ReadReq accesses
system.cpu.dcache.ReadReq_avg_mshr_miss_latency::.cpu.data 80490.220913                       # average ReadReq mshr miss latency
system.cpu.dcache.ReadReq_avg_mshr_miss_latency::total 80490.220913                       # average ReadReq mshr miss latency
system.cpu.dcache.WriteReq_hits::.cpu.data      7959733                       # number of WriteReq hits
system.cpu.dcache.WriteReq_hits::total        7959733                       # number of WriteReq hits
system.cpu.dcache.WriteReq_misses::.cpu.data         4419                       # number of WriteReq misses
system.cpu.dcache.WriteReq_misses::total         4419                       # number of WriteReq misses
system.cpu.dcache.WriteReq_miss_latency::.cpu.data    335834000                       # number of WriteReq miss cycles
system.cpu.dcache.WriteReq_miss_latency::total    335834000                       # number of WriteReq miss cycles
system.cpu.dcache.WriteReq_accesses::.cpu.data      7964152                       # number of WriteReq accesses(hits+misses)
system.cpu.dcache.WriteReq_accesses::total      7964152                       # number of WriteReq accesses(hits+misses)
system.cpu.dcache.WriteReq_miss_rate::.cpu.data     0.000555                       # miss rate for WriteReq accesses
system.cpu.dcache.WriteReq_miss_rate::total     0.000555                       # miss rate for WriteReq accesses
system.cpu.dcache.WriteReq_avg_miss_latency::.cpu.data 75997.737045                       # average WriteReq miss latency
system.cpu.dcache.WriteReq_avg_miss_latency::total 75997.737045                       # average WriteReq miss latency
system.cpu.dcache.WriteReq_mshr_misses::.cpu.data         4419                       # number of WriteReq MSHR misses
system.cpu.dcache.WriteReq_mshr_misses::total         4419                       # number of WriteReq MSHR misses
system.cpu.dcache.WriteReq_mshr_miss_latency::.cpu.data    331415000                       # number of WriteReq MSHR miss cycles
system.cpu.dcache.WriteReq_mshr_miss_latency::total    331415000                       # number of WriteReq MSHR miss cycles
system.cpu.dcache.WriteReq_mshr_miss_rate::.cpu.data     0.000555                       # mshr miss rate for WriteReq accesses
system.cpu.dcache.WriteReq_mshr_miss_rate::total     0.000555                       # mshr miss rate for WriteReq accesses
system.cpu.dcache.WriteReq_avg_mshr_miss_latency::.cpu.data 74997.737045                       # average WriteReq mshr miss latency
system.cpu.dcache.WriteReq_avg_mshr_miss_latency::total 74997.737045                       # average WriteReq mshr miss latency
system.cpu.dcache.power_state.pwrStateResidencyTicks::UNDEFINED 187681981500                       # Cumulative time (in ticks) in various power states
system.cpu.dcache.tags.tagsinuse          4088.645376                       # Cycle average of tags in use
system.cpu.dcache.tags.total_refs            50914625                       # Total number of references to valid blocks.
system.cpu.dcache.tags.sampled_refs             21394                       # Sample count of references to valid blocks.
system.cpu.dcache.tags.avg_refs           2379.855333                       # Average number of references to valid blocks.
system.cpu.dcache.tags.warmup_cycle            174500                       # Cycle when the warmup percentage was hit.
system.cpu.dcache.tags.occ_blocks::.cpu.data  4088.645376                       # Average occupied blocks per requestor
system.cpu.dcache.tags.occ_percent::.cpu.data     0.998204                       # Average percentage of cache occupancy
system.cpu.dcache.tags.occ_percent::total     0.998204                       # Average percentage of cache occupancy
system.cpu.dcache.tags.occ_task_id_blocks::1024         4096                       # Occupied blocks per task id
system.cpu.dcache.tags.age_task_id_blocks_1024::4         4096                       # Occupied blocks per task id
system.cpu.dcache.tags.occ_task_id_percent::1024            1                       # Percentage of cache occupancy per task id
system.cpu.dcache.tags.tag_accesses       26068309394                       # Number of tag accesses
system.cpu.dcache.tags.data_accesses      26068309394                       # Number of data accesses
system.cpu.dcache.tags.power_state.pwrStateResidencyTicks::UNDEFINED 187681981500                       # Cumulative time (in ticks) in various power states
system.cpu.dtb.rdAccesses                    42950693                       # TLB accesses on read requests
system.cpu.dtb.wrAccesses                     7964190                       # TLB accesses on write requests
system.cpu.dtb.rdMisses                          1293                       # TLB misses on read requests
system.cpu.dtb.wrMisses                           115                       # TLB misses on write requests
system.cpu.dtb.walker.power_state.pwrStateResidencyTicks::UNDEFINED 187681981500                       # Cumulative time (in ticks) in various power states
system.cpu.dtb_walker_cache.blocked_cycles::no_mshrs            0                       # number of cycles access was blocked
system.cpu.dtb_walker_cache.blocked_cycles::no_targets            0                       # number of cycles access was blocked
system.cpu.dtb_walker_cache.blocked::no_mshrs            0                       # number of cycles access was blocked
system.cpu.dtb_walker_cache.blocked::no_targets            0                       # number of cycles access was blocked
system.cpu.dtb_walker_cache.avg_blocked_cycles::no_mshrs          nan                       # average number of cycles each access was blocked
system.cpu.dtb_walker_cache.avg_blocked_cycles::no_targets          nan                       # average number of cycles each access was blocked
system.cpu.dtb_walker_cache.replacements            0                       # number of replacements
system.cpu.dtb_walker_cache.power_state.pwrStateResidencyTicks::UNDEFINED 187681981500                       # Cumulative time (in ticks) in various power states
system.cpu.dtb_walker_cache.tags.tagsinuse            0                       # Cycle average of tags in use
system.cpu.dtb_walker_cache.tags.total_refs            0                       # Total number of references to valid blocks.
system.cpu.dtb_walker_cache.tags.sampled_refs            0                       # Sample count of references to valid blocks.
system.cpu.dtb_walker_cache.tags.avg_refs          nan                       # Average number of references to valid blocks.
system.cpu.dtb_walker_cache.tags.warmup_cycle            0                       # Cycle when the warmup percentage was hit.
system.cpu.dtb_walker_cache.tags.tag_accesses            0                       # Number of tag accesses
system.cpu.dtb_walker_cache.tags.data_accesses            0                       # Number of data accesses
system.cpu.dtb_walker_cache.tags.power_state.pwrStateResidencyTicks::UNDEFINED 187681981500                       # Cumulative time (in ticks) in various power states
system.cpu.icache.demand_hits::.cpu.inst    134834550                       # number of demand (read+write) hits
system.cpu.icache.demand_hits::total        134834550                       # number of demand (read+write) hits
system.cpu.icache.overall_hits::.cpu.inst    134834550                       # number of overall hits
system.cpu.icache.overall_hits::total       134834550                       # number of overall hits
system.cpu.icache.demand_misses::.cpu.inst         3013                       # number of demand (read+write) misses
system.cpu.icache.demand_misses::total           3013                       # number of demand (read+write) misses
system.cpu.icache.overall_misses::.cpu.inst         3013                       # number of overall misses
system.cpu.icache.overall_misses::total          3013                       # number of overall misses
system.cpu.icache.demand_miss_latency::.cpu.inst    236223000                       # number of demand (read+write) miss cycles
system.cpu.icache.demand_miss_latency::total    236223000                       # number of demand (read+write) miss cycles
system.cpu.icache.overall_miss_latency::.cpu.inst    236223000                       # number of overall miss cycles
system.cpu.icache.overall_miss_latency::total    236223000                       # number of overall miss cycles
system.cpu.icache.demand_accesses::.cpu.inst    134837563                       # number of demand (read+write) accesses
system.cpu.icache.demand_accesses::total    134837563                       # number of demand (read+write) accesses
system.cpu.icache.overall_accesses::.cpu.inst    134837563                       # number of overall (read+write) accesses
system.cpu.icache.overall_accesses::total    134837563                       # number of overall (read+write) accesses
system.cpu.icache.demand_miss_rate::.cpu.inst     0.000022                       # miss rate for demand accesses
system.cpu.icache.demand_miss_rate::total     0.000022                       # miss rate for demand accesses
system.cpu.icache.overall_miss_rate::.cpu.inst     0.000022                       # miss rate for overall accesses
system.cpu.icache.overall_miss_rate::total     0.000022                       # miss rate for overall accesses
system.cpu.icache.demand_avg_miss_latency::.cpu.inst 78401.261201                       # average overall miss latency
system.cpu.icache.demand_avg_miss_latency::total 78401.261201                       # average overall miss latency
system.cpu.icache.overall_avg_miss_latency::.cpu.inst 78401.261201                       # average overall miss latency
system.cpu.icache.overall_avg_miss_latency::total 78401.261201                       # average overall miss latency
system.cpu.icache.blocked_cycles::no_mshrs            0                       # number of cycles access was blocked
system.cpu.icache.blocked_cycles::no_targets            0                       # number of cycles access was blocked
system.cpu.icache.blocked::no_mshrs                 0                       # number of cycles access was blocked
system.cpu.icache.blocked::no_targets               0                       # number of cycles access was blocked
system.cpu.icache.avg_blocked_cycles::no_mshrs          nan                       # average number of cycles each access was blocked
system.cpu.icache.avg_blocked_cycles::no_targets          nan                       # average number of cycles each access was blocked
system.cpu.icache.writebacks::.writebacks          501                       # number of writebacks
system.cpu.icache.writebacks::total               501                       # number of writebacks
system.cpu.icache.demand_mshr_misses::.cpu.inst         3013                       # number of demand (read+write) MSHR misses
system.cpu.icache.demand_mshr_misses::total         3013                       # number of demand (read+write) MSHR misses
system.cpu.icache.overall_mshr_misses::.cpu.inst         3013                       # number of overall MSHR misses
system.cpu.icache.overall_mshr_misses::total         3013                       # number of overall MSHR misses
system.cpu.icache.demand_mshr_miss_latency::.cpu.inst    233210000                       # number of demand (read+write) MSHR miss cycles
system.cpu.icache.demand_mshr_miss_latency::total    233210000                       # number of demand (read+write) MSHR miss cycles
system.cpu.icache.overall_mshr_miss_latency::.cpu.inst    233210000                       # number of overall MSHR miss cycles
system.cpu.icache.overall_mshr_miss_latency::total    233210000                       # number of overall MSHR miss cycles
system.cpu.icache.demand_mshr_miss_rate::.cpu.inst     0.000022                       # mshr miss rate for demand accesses
system.cpu.icache.demand_mshr_miss_rate::total     0.000022                       # mshr miss rate for demand accesses
system.cpu.icache.overall_mshr_miss_rate::.cpu.inst     0.000022                       # mshr miss rate for overall accesses
system.cpu.icache.overall_mshr_miss_rate::total     0.000022                       # mshr miss rate for overall accesses
system.cpu.icache.demand_avg_mshr_miss_latency::.cpu.inst 77401.261201                       # average overall mshr miss latency
system.cpu.icache.demand_avg_mshr_miss_latency::total 77401.261201                       # average overall mshr miss latency
system.cpu.icache.overall_avg_mshr_miss_latency::.cpu.inst 77401.261201                       # average overall mshr miss latency
system.cpu.icache.overall_avg_mshr_miss_latency::total 77401.261201                       # average overall mshr miss latency
system.cpu.icache.replacements                    501                       # number of replacements
system.cpu.icache.ReadReq_hits::.cpu.inst    134834550                       # number of ReadReq hits
system.cpu.icache.ReadReq_hits::total       134834550                       # number of ReadReq hits
system.cpu.icache.ReadReq_misses::.cpu.inst         3013                       # number of ReadReq misses
system.cpu.icache.ReadReq_misses::total          3013                       # number of ReadReq misses
system.cpu.icache.ReadReq_miss_latency::.cpu.inst    236223000                       # number of ReadReq miss cycles
system.cpu.icache.ReadReq_miss_latency::total    236223000                       # number of ReadReq miss cycles
system.cpu.icache.ReadReq_accesses::.cpu.inst    134837563                       # number of ReadReq accesses(hits+misses)
system.cpu.icache.ReadReq_accesses::total    134837563                       # number of ReadReq accesses(hits+misses)
system.cpu.icache.ReadReq_miss_rate::.cpu.inst     0.000022                       # miss rate for ReadReq accesses
system.cpu.icache.ReadReq_miss_rate::total     0.000022                       # miss rate for ReadReq accesses
system.cpu.icache.ReadReq_avg_miss_latency::.cpu.inst 78401.261201                       # average ReadReq miss latency
system.cpu.icache.ReadReq_avg_miss_latency::total 78401.261201                       # average ReadReq miss latency
system.cpu.icache.ReadReq_mshr_misses::.cpu.inst         3013                       # number of ReadReq MSHR misses
system.cpu.icache.ReadReq_mshr_misses::total         3013                       # number of ReadReq MSHR misses
system.cpu.icache.ReadReq_mshr_miss_latency::.cpu.inst    233210000                       # number of ReadReq MSHR miss cycles
system.cpu.icache.ReadReq_mshr_miss_latency::total    233210000                       # number of ReadReq MSHR miss cycles
system.cpu.icache.ReadReq_mshr_miss_rate::.cpu.inst     0.000022                       # mshr miss rate for ReadReq accesses
system.cpu.icache.ReadReq_mshr_miss_rate::total     0.000022                       # mshr miss rate for ReadReq accesses
system.cpu.icache.ReadReq_avg_mshr_miss_latency::.cpu.inst 77401.261201                       # average ReadReq mshr miss latency
system.cpu.icache.ReadReq_avg_mshr_miss_latency::total 77401.261201                       # average ReadReq mshr miss latency
system.cpu.icache.power_state.pwrStateResidencyTicks::UNDEFINED 187681981500                       # Cumulative time (in ticks) in various power states
system.cpu.icache.tags.tagsinuse          2475.534954                       # Cycle average of tags in use
system.cpu.icache.tags.total_refs           134837563                       # Total number of references to valid blocks.
system.cpu.icache.tags.sampled_refs              3013                       # Sample count of references to valid blocks.
system.cpu.icache.tags.avg_refs          44751.929306                       # Average number of references to valid blocks.
system.cpu.icache.tags.warmup_cycle             87500                       # Cycle when the warmup percentage was hit.
system.cpu.icache.tags.occ_blocks::.cpu.inst  2475.534954                       # Average occupied blocks per requestor
system.cpu.icache.tags.occ_percent::.cpu.inst     0.604379                       # Average percentage of cache occupancy
system.cpu.icache.tags.occ_percent::total     0.604379                       # Average percentage of cache occupancy
system.cpu.icache.tags.occ_task_id_blocks::1024         2512                       # Occupied blocks per task id
system.cpu.icache.tags.age_task_id_blocks_1024::4         2512                       # Occupied blocks per task id
system.cpu.icache.tags.occ_task_id_percent::1024     0.613281                       # Percentage of cache occupancy per task id
system.cpu.icache.tags.tag_accesses         269678139                       # Number of tag accesses
system.cpu.icache.tags.data_accesses        269678139                       # Number of data accesses
system.cpu.icache.tags.power_state.pwrStateResidencyTicks::UNDEFINED 187681981500                       # Cumulative time (in ticks) in various power states
system.cpu.interrupts.clk_domain.clock           8000                       # Clock period in ticks
system.cpu.itb.rdAccesses                           0                       # TLB accesses on read requests
system.cpu.itb.wrAccesses                   134837674                       # TLB accesses on write requests
system.cpu.itb.rdMisses                             0                       # TLB misses on read requests
system.cpu.itb.wrMisses                           376                       # TLB misses on write requests
system.cpu.itb.walker.power_state.pwrStateResidencyTicks::UNDEFINED 187681981500                       # Cumulative time (in ticks) in various power states
system.cpu.itb_walker_cache.blocked_cycles::no_mshrs            0                       # number of cycles access was blocked
system.cpu.itb_walker_cache.blocked_cycles::no_targets            0                       # number of cycles access was blocked
system.cpu.itb_walker_cache.blocked::no_mshrs            0                       # number of cycles access was blocked
system.cpu.itb_walker_cache.blocked::no_targets            0                       # number of cycles access was blocked
system.cpu.itb_walker_cache.avg_blocked_cycles::no_mshrs          nan                       # average number of cycles each access was blocked
system.cpu.itb_walker_cache.avg_blocked_cycles::no_targets          nan                       # average number of cycles each access was blocked
system.cpu.itb_walker_cache.replacements            0                       # number of replacements
system.cpu.itb_walker_cache.power_state.pwrStateResidencyTicks::UNDEFINED 187681981500                       # Cumulative time (in ticks) in various power states
system.cpu.itb_walker_cache.tags.tagsinuse            0                       # Cycle average of tags in use
system.cpu.itb_walker_cache.tags.total_refs            0                       # Total number of references to valid blocks.
system.cpu.itb_walker_cache.tags.sampled_refs            0                       # Sample count of references to valid blocks.
system.cpu.itb_walker_cache.tags.avg_refs          nan                       # Average number of references to valid blocks.
system.cpu.itb_walker_cache.tags.warmup_cycle            0                       # Cycle when the warmup percentage was hit.
system.cpu.itb_walker_cache.tags.tag_accesses            0                       # Number of tag accesses
system.cpu.itb_walker_cache.tags.data_accesses            0                       # Number of data accesses
system.cpu.itb_walker_cache.tags.power_state.pwrStateResidencyTicks::UNDEFINED 187681981500                       # Cumulative time (in ticks) in various power states
system.cpu.power_state.pwrStateResidencyTicks::ON 187681981500                       # Cumulative time (in ticks) in various power states
system.cpu.thread_0.numInsts                        0                       # Number of Instructions committed
system.cpu.thread_0.numOps                          0                       # Number of Ops committed
system.cpu.thread_0.numMemRefs                      0                       # Number of Memory References
system.cpu_clk_domain.clock                       500                       # Clock period in ticks
system.cpu_voltage_domain.voltage                   1                       # Voltage in Volts
system.l2.demand_hits::.cpu.inst                    9                       # number of demand (read+write) hits
system.l2.demand_hits::.cpu.data                  587                       # number of demand (read+write) hits
system.l2.demand_hits::total                      596                       # number of demand (read+write) hits
system.l2.overall_hits::.cpu.inst                   9                       # number of overall hits
system.l2.overall_hits::.cpu.data                 587                       # number of overall hits
system.l2.overall_hits::total                     596                       # number of overall hits
system.l2.demand_misses::.cpu.inst               3004                       # number of demand (read+write) misses
system.l2.demand_misses::.cpu.data              20807                       # number of demand (read+write) misses
system.l2.demand_misses::total                  23811                       # number of demand (read+write) misses
system.l2.overall_misses::.cpu.inst              3004                       # number of overall misses
system.l2.overall_misses::.cpu.data             20807                       # number of overall misses
system.l2.overall_misses::total                 23811                       # number of overall misses
system.l2.demand_miss_latency::.cpu.inst    228596000                       # number of demand (read+write) miss cycles
system.l2.demand_miss_latency::.cpu.data   1659477500                       # number of demand (read+write) miss cycles
system.l2.demand_miss_latency::total       1888073500                       # number of demand (read+write) miss cycles
system.l2.overall_miss_latency::.cpu.inst    228596000                       # number of overall miss cycles
system.l2.overall_miss_latency::.cpu.data   1659477500                       # number of overall miss cycles
system.l2.overall_miss_latency::total      1888073500                       # number of overall miss cycles
system.l2.demand_accesses::.cpu.inst             3013                       # number of demand (read+write) accesses
system.l2.demand_accesses::.cpu.data            21394                       # number of demand (read+write) accesses
system.l2.demand_accesses::total                24407                       # number of demand (read+write) accesses
system.l2.overall_accesses::.cpu.inst            3013                       # number of overall (read+write) accesses
system.l2.overall_accesses::.cpu.data           21394                       # number of overall (read+write) accesses
system.l2.overall_accesses::total               24407                       # number of overall (read+write) accesses
system.l2.demand_miss_rate::.cpu.inst        0.997013                       # miss rate for demand accesses
system.l2.demand_miss_rate::.cpu.data        0.972562                       # miss rate for demand accesses
system.l2.demand_miss_rate::total            0.975581                       # miss rate for demand accesses
system.l2.overall_miss_rate::.cpu.inst       0.997013                       # miss rate for overall accesses
system.l2.overall_miss_rate::.cpu.data       0.972562                       # miss rate for overall accesses
system.l2.overall_miss_rate::total           0.975581                       # miss rate for overall accesses
system.l2.demand_avg_miss_latency::.cpu.inst 76097.203728                       # average overall miss latency
system.l2.demand_avg_miss_latency::.cpu.data 79755.731244                       # average overall miss latency
system.l2.demand_avg_miss_latency::total 79294.170761                       # average overall miss latency
system.l2.overall_avg_miss_latency::.cpu.inst 76097.203728                       # average overall miss latency
system.l2.overall_avg_miss_latency::.cpu.data 79755.731244                       # average overall miss latency
system.l2.overall_avg_miss_latency::total 79294.170761                       # average overall miss latency
system.l2.blocked_cycles::no_mshrs                  0                       # number of cycles access was blocked
system.l2.blocked_cycles::no_targets                0                       # number of cycles access was blocked
system.l2.blocked::no_mshrs                         0                       # number of cycles access was blocked
system.l2.blocked::no_targets                       0                       # number of cycles access was blocked
system.l2.avg_blocked_cycles::no_mshrs            nan                       # average number of cycles each access was blocked
system.l2.avg_blocked_cycles::no_targets          nan                       # average number of cycles each access was blocked
system.l2.writebacks::.writebacks                2753                       # number of writebacks
system.l2.writebacks::total                      2753                       # number of writebacks
system.l2.demand_mshr_misses::.cpu.inst          3004                       # number of demand (read+write) MSHR misses
system.l2.demand_mshr_misses::.cpu.data         20807                       # number of demand (read+write) MSHR misses
system.l2.demand_mshr_misses::total             23811                       # number of demand (read+write) MSHR misses
system.l2.overall_mshr_misses::.cpu.inst         3004                       # number of overall MSHR misses
system.l2.overall_mshr_misses::.cpu.data        20807                       # number of overall MSHR misses
system.l2.overall_mshr_misses::total            23811                       # number of overall MSHR misses
system.l2.demand_mshr_miss_latency::.cpu.inst    198556000                       # number of demand (read+write) MSHR miss cycles
system.l2.demand_mshr_miss_latency::.cpu.data   1451407500                       # number of demand (read+write) MSHR miss cycles
system.l2.demand_mshr_miss_latency::total   1649963500                       # number of demand (read+write) MSHR miss cycles
system.l2.overall_mshr_miss_latency::.cpu.inst    198556000                       # number of overall MSHR miss cycles
system.l2.overall_mshr_miss_latency::.cpu.data   1451407500                       # number of overall MSHR miss cycles
system.l2.overall_mshr_miss_latency::total   1649963500                       # number of overall MSHR miss cycles
system.l2.demand_mshr_miss_rate::.cpu.inst     0.997013                       # mshr miss rate for demand accesses
system.l2.demand_mshr_miss_rate::.cpu.data     0.972562                       # mshr miss rate for demand accesses
system.l2.demand_mshr_miss_rate::total       0.975581                       # mshr miss rate for demand accesses
system.l2.overall_mshr_miss_rate::.cpu.inst     0.997013                       # mshr miss rate for overall accesses
system.l2.overall_mshr_miss_rate::.cpu.data     0.972562                       # mshr miss rate for overall accesses
system.l2.overall_mshr_miss_rate::total      0.975581                       # mshr miss rate for overall accesses
system.l2.demand_avg_mshr_miss_latency::.cpu.inst 66097.203728                       # average overall mshr miss latency
system.l2.demand_avg_mshr_miss_latency::.cpu.data 69755.731244                       # average overall mshr miss latency
system.l2.demand_avg_mshr_miss_latency::total 69294.170761                       # average overall mshr miss latency
system.l2.overall_avg_mshr_miss_latency::.cpu.inst 66097.203728                       # average overall mshr miss latency
system.l2.overall_avg_mshr_miss_latency::.cpu.data 69755.731244                       # average overall mshr miss latency
system.l2.overall_avg_mshr_miss_latency::total 69294.170761                       # average overall mshr miss latency
system.l2.replacements                          22736                       # number of replacements
system.l2.WritebackDirty_hits::.writebacks         3357                       # number of WritebackDirty hits
system.l2.WritebackDirty_hits::total             3357                       # number of WritebackDirty hits
system.l2.WritebackDirty_accesses::.writebacks         3357                       # number of WritebackDirty accesses(hits+misses)
system.l2.WritebackDirty_accesses::total         3357                       # number of WritebackDirty accesses(hits+misses)
system.l2.WritebackClean_hits::.writebacks          501                       # number of WritebackClean hits
system.l2.WritebackClean_hits::total              501                       # number of WritebackClean hits
system.l2.WritebackClean_accesses::.writebacks          501                       # number of WritebackClean accesses(hits+misses)
system.l2.WritebackClean_accesses::total          501                       # number of WritebackClean accesses(hits+misses)
system.l2.CleanEvict_mshr_misses::.writebacks         9317                       # number of CleanEvict MSHR misses
system.l2.CleanEvict_mshr_misses::total          9317                       # number of CleanEvict MSHR misses
system.l2.CleanEvict_mshr_miss_rate::.writebacks          inf                       # mshr miss rate for CleanEvict accesses
system.l2.CleanEvict_mshr_miss_rate::total          inf                       # mshr miss rate for CleanEvict accesses
system.l2.ReadExReq_hits::.cpu.data               250                       # number of ReadExReq hits
system.l2.ReadExReq_hits::total                   250                       # number of ReadExReq hits
system.l2.ReadExReq_misses::.cpu.data            4169                       # number of ReadExReq misses
system.l2.ReadExReq_misses::total                4169                       # number of ReadExReq misses
system.l2.ReadExReq_miss_latency::.cpu.data    322161500                       # number of ReadExReq miss cycles
system.l2.ReadExReq_miss_latency::total     322161500                       # number of ReadExReq miss cycles
system.l2.ReadExReq_accesses::.cpu.data          4419                       # number of ReadExReq accesses(hits+misses)
system.l2.ReadExReq_accesses::total              4419                       # number of ReadExReq accesses(hits+misses)
system.l2.ReadExReq_miss_rate::.cpu.data     0.943426                       # miss rate for ReadExReq accesses
system.l2.ReadExReq_miss_rate::total         0.943426                       # miss rate for ReadExReq accesses
system.l2.ReadExReq_avg_miss_latency::.cpu.data 77275.485728                       # average ReadExReq miss latency
system.l2.ReadExReq_avg_miss_latency::total 77275.485728                       # average ReadExReq miss latency
system.l2.ReadExReq_mshr_misses::.cpu.data         4169                       # number of ReadExReq MSHR misses
system.l2.ReadExReq_mshr_misses::total           4169                       # number of ReadExReq MSHR misses
system.l2.ReadExReq_mshr_miss_latency::.cpu.data    280471500                       # number of ReadExReq MSHR miss cycles
system.l2.ReadExReq_mshr_miss_latency::total    280471500                       # number of ReadExReq MSHR miss cycles
system.l2.ReadExReq_mshr_miss_rate::.cpu.data     0.943426                       # mshr miss rate for ReadExReq accesses
system.l2.ReadExReq_mshr_miss_rate::total     0.943426                       # mshr miss rate for ReadExReq accesses
system.l2.ReadExReq_avg_mshr_miss_latency::.cpu.data 67275.485728                       # average ReadExReq mshr miss latency
system.l2.ReadExReq_avg_mshr_miss_latency::total 67275.485728                       # average ReadExReq mshr miss latency
system.l2.ReadCleanReq_hits::.cpu.inst              9                       # number of ReadCleanReq hits
system.l2.ReadCleanReq_hits::total                  9                       # number of ReadCleanReq hits
system.l2.ReadCleanReq_misses::.cpu.inst         3004                       # number of ReadCleanReq misses
system.l2.ReadCleanReq_misses::total             3004                       # number of ReadCleanReq misses
system.l2.ReadCleanReq_miss_latency::.cpu.inst    228596000                       # number of ReadCleanReq miss cycles
system.l2.ReadCleanReq_miss_latency::total    228596000                       # number of ReadCleanReq miss cycles
system.l2.ReadCleanReq_accesses::.cpu.inst         3013                       # number of ReadCleanReq accesses(hits+misses)
system.l2.ReadCleanReq_accesses::total           3013                       # number of ReadCleanReq accesses(hits+misses)
system.l2.ReadCleanReq_miss_rate::.cpu.inst     0.997013                       # miss rate for ReadCleanReq accesses
system.l2.ReadCleanReq_miss_rate::total      0.997013                       # miss rate for ReadCleanReq accesses
system.l2.ReadCleanReq_avg_miss_latency::.cpu.inst 76097.203728                       # average ReadCleanReq miss latency
system.l2.ReadCleanReq_avg_miss_latency::total 76097.203728                       # average ReadCleanReq miss latency
system.l2.ReadCleanReq_mshr_misses::.cpu.inst         3004                       # number of ReadCleanReq MSHR misses
system.l2.ReadCleanReq_mshr_misses::total         3004                       # number of ReadCleanReq MSHR misses
system.l2.ReadCleanReq_mshr_miss_latency::.cpu.inst    198556000                       # number of ReadCleanReq MSHR miss cycles
system.l2.ReadCleanReq_mshr_miss_latency::total    198556000                       # number of ReadCleanReq MSHR miss cycles
system.l2.ReadCleanReq_mshr_miss_rate::.cpu.inst     0.997013                       # mshr miss rate for ReadCleanReq accesses
system.l2.ReadCleanReq_mshr_miss_rate::total     0.997013                       # mshr miss rate for ReadCleanReq accesses
system.l2.ReadCleanReq_avg_mshr_miss_latency::.cpu.inst 66097.203728                       # average ReadCleanReq mshr miss latency
system.l2.ReadCleanReq_avg_mshr_miss_latency::total 66097.203728                       # average ReadCleanReq mshr miss latency
system.l2.ReadSharedReq_hits::.cpu.data           337                       # number of ReadSharedReq hits
system.l2.ReadSharedReq_hits::total               337                       # number of ReadSharedReq hits
system.l2.ReadSharedReq_misses::.cpu.data        16638                       # number of ReadSharedReq misses
system.l2.ReadSharedReq_misses::total           16638                       # number of ReadSharedReq misses
system.l2.ReadSharedReq_miss_latency::.cpu.data   1337316000                       # number of ReadSharedReq miss cycles
system.l2.ReadSharedReq_miss_latency::total   1337316000                       # number of ReadSharedReq miss cycles
system.l2.ReadSharedReq_accesses::.cpu.data        16975                       # number of ReadSharedReq accesses(hits+misses)
system.l2.ReadSharedReq_accesses::total         16975                       # number of ReadSharedReq accesses(hits+misses)
system.l2.ReadSharedReq_miss_rate::.cpu.data     0.980147                       # miss rate for ReadSharedReq accesses
system.l2.ReadSharedReq_miss_rate::total     0.980147                       # miss rate for ReadSharedReq accesses
system.l2.ReadSharedReq_avg_miss_latency::.cpu.data 80377.208799                       # average ReadSharedReq miss latency
system.l2.ReadSharedReq_avg_miss_latency::total 80377.208799                       # average ReadSharedReq miss latency
system.l2.ReadSharedReq_mshr_misses::.cpu.data        16638                       # number of ReadSharedReq MSHR misses
system.l2.ReadSharedReq_mshr_misses::total        16638                       # number of ReadSharedReq MSHR misses
system.l2.ReadSharedReq_mshr_miss_latency::.cpu.data   1170936000                       # number of ReadSharedReq MSHR miss cycles
system.l2.ReadSharedReq_mshr_miss_latency::total   1170936000                       # number of ReadSharedReq MSHR miss cycles
system.l2.ReadSharedReq_mshr_miss_rate::.cpu.data     0.980147                       # mshr miss rate for ReadSharedReq accesses
system.l2.ReadSharedReq_mshr_miss_rate::total     0.980147                       # mshr miss rate for ReadSharedReq accesses
system.l2.ReadSharedReq_avg_mshr_miss_latency::.cpu.data 70377.208799                       # average ReadSharedReq mshr miss latency
system.l2.ReadSharedReq_avg_mshr_miss_latency::total 70377.208799                       # average ReadSharedReq mshr miss latency
system.l2.power_state.pwrStateResidencyTicks::UNDEFINED 187681981500                       # Cumulative time (in ticks) in various power states
system.l2.tags.tagsinuse                  4088.726785                       # Cycle average of tags in use
system.l2.tags.total_refs                       32889                       # Total number of references to valid blocks.
system.l2.tags.sampled_refs                     26832                       # Sample count of references to valid blocks.
system.l2.tags.avg_refs                      1.225738                       # Average number of references to valid blocks.
system.l2.tags.warmup_cycle                     77000                       # Cycle when the warmup percentage was hit.
system.l2.tags.occ_blocks::.writebacks     596.712429                       # Average occupied blocks per requestor
system.l2.tags.occ_blocks::.cpu.inst       848.061591                       # Average occupied blocks per requestor
system.l2.tags.occ_blocks::.cpu.data      2643.952765                       # Average occupied blocks per requestor
system.l2.tags.occ_percent::.writebacks      0.145682                       # Average percentage of cache occupancy
system.l2.tags.occ_percent::.cpu.inst        0.207046                       # Average percentage of cache occupancy
system.l2.tags.occ_percent::.cpu.data        0.645496                       # Average percentage of cache occupancy
system.l2.tags.occ_percent::total            0.998224                       # Average percentage of cache occupancy
system.l2.tags.occ_task_id_blocks::1024          4096                       # Occupied blocks per task id
system.l2.tags.age_task_id_blocks_1024::4         4096                       # Occupied blocks per task id
system.l2.tags.occ_task_id_percent::1024            1                       # Percentage of cache occupancy per task id
system.l2.tags.tag_accesses                    111244                       # Number of tag accesses
system.l2.tags.data_accesses                   111244                       # Number of data accesses
system.l2.tags.power_state.pwrStateResidencyTicks::UNDEFINED 187681981500                       # Cumulative time (in ticks) in various power states
system.mem_ctrls.avgPriority_.writebacks::samples      2349.00                       # Average QoS priority value for accepted requests
system.mem_ctrls.avgPriority_.cpu.inst::samples      3004.00                       # Average QoS priority value for accepted requests
system.mem_ctrls.avgPriority_.cpu.data::samples     20799.00                       # Average QoS priority value for accepted requests
system.mem_ctrls.priorityMinLatency      0.000000018750                       # per QoS priority minimum request to response latency (s)
system.mem_ctrls.priorityMaxLatency      0.001353438500                       # per QoS priority maximum request to response latency (s)
system.mem_ctrls.numReadWriteTurnArounds          135                       # Number of turnarounds from READ to WRITE
system.mem_ctrls.numWriteReadTurnArounds          135                       # Number of turnarounds from WRITE to READ
system.mem_ctrls.numStayReadState               98500                       # Number of times bus staying in READ state
system.mem_ctrls.numStayWriteState               2197                       # Number of times bus staying in WRITE state
system.mem_ctrls.readReqs                       23811                       # Number of read requests accepted
system.mem_ctrls.writeReqs                       2753                       # Number of write requests accepted
system.mem_ctrls.readBursts                     23811                       # Number of controller read bursts, including those serviced by the write queue
system.mem_ctrls.writeBursts                     2753                       # Number of controller write bursts, including those merged in the write queue
system.mem_ctrls.servicedByWrQ                      8                       # Number of controller read bursts serviced by the write queue
system.mem_ctrls.mergedWrBursts                   404                       # Number of controller write bursts merged with an existing one
system.mem_ctrls.neitherReadNorWriteReqs            0                       # Number of requests that are neither read nor write
system.mem_ctrls.avgRdQLen                       1.00                       # Average read queue length when enqueuing
system.mem_ctrls.avgWrQLen                      19.10                       # Average write queue length when enqueuing
system.mem_ctrls.numRdRetry                         0                       # Number of times read queue was full causing retry
system.mem_ctrls.numWrRetry                         0                       # Number of times write queue was full causing retry
system.mem_ctrls.readPktSize::0                     0                       # Read request sizes (log2)
system.mem_ctrls.readPktSize::1                     0                       # Read request sizes (log2)
system.mem_ctrls.readPktSize::2                     0                       # Read request sizes (log2)
system.mem_ctrls.readPktSize::3                     0                       # Read request sizes (log2)
system.mem_ctrls.readPktSize::4                     0                       # Read request sizes (log2)
system.mem_ctrls.readPktSize::5                 23811                       # Read request sizes (log2)
system.mem_ctrls.writePktSize::0                    0                       # Write request sizes (log2)
system.mem_ctrls.writePktSize::1                    0                       # Write request sizes (log2)
system.mem_ctrls.writePktSize::2                    0                       # Write request sizes (log2)
system.mem_ctrls.writePktSize::3                    0                       # Write request sizes (log2)
system.mem_ctrls.writePktSize::4                    0                       # Write request sizes (log2)
system.mem_ctrls.writePktSize::5                 2753                       # Write request sizes (log2)
system.mem_ctrls.rdQLenPdf::0                   23794                       # What read queue length does an incoming req see
system.mem_ctrls.rdQLenPdf::1                       9                       # What read queue length does an incoming req see
system.mem_ctrls.rdQLenPdf::2                       0                       # What read queue length does an incoming req see
system.mem_ctrls.rdQLenPdf::3                       0                       # What read queue length does an incoming req see
system.mem_ctrls.rdQLenPdf::4                       0                       # What read queue length does an incoming req see
system.mem_ctrls.rdQLenPdf::5                       0                       # What read queue length does an incoming req see
system.mem_ctrls.rdQLenPdf::6                       0                       # What read queue length does an incoming req see
system.mem_ctrls.rdQLenPdf::7                       0                       # What read queue length does an incoming req see
system.mem_ctrls.rdQLenPdf::8                       0                       # What read queue length does an incoming req see
system.mem_ctrls.rdQLenPdf::9                       0                       # What read queue length does an incoming req see
system.mem_ctrls.rdQLenPdf::10                      0                       # What read queue length does an incoming req see
system.mem_ctrls.rdQLenPdf::11                      0                       # What read queue length does an incoming req see
system.mem_ctrls.rdQLenPdf::12                      0                       # What read queue length does an incoming req see
system.mem_ctrls.rdQLenPdf::13                      0                       # What read queue length does an incoming req see
system.mem_ctrls.rdQLenPdf::14                      0                       # What read queue length does an incoming req see
system.mem_ctrls.rdQLenPdf::15                      0                       # What read queue length does an incoming req see
system.mem_ctrls.rdQLenPdf::16                      0                       # What read queue length does an incoming req see
system.mem_ctrls.rdQLenPdf::17                      0                       # What read queue length does an incoming req see
system.mem_ctrls.rdQLenPdf::18                      0                       # What read queue length does an incoming req see
system.mem_ctrls.rdQLenPdf::19                      0                       # What read queue length does an incoming req see
system.mem_ctrls.rdQLenPdf::20                      0                       # What read queue length does an incoming req see
system.mem_ctrls.rdQLenPdf::21                      0                       # What read queue length does an incoming req see
system.mem_ctrls.rdQLenPdf::22                      0                       # What read queue length does an incoming req see
system.mem_ctrls.rdQLenPdf::23                      0                       # What read queue length does an incoming req see
system.mem_ctrls.rdQLenPdf::24                      0                       # What read queue length does an incoming req see
system.mem_ctrls.rdQLenPdf::25                      0                       # What read queue length does an incoming req see
system.mem_ctrls.rdQLenPdf::26                      0                       # What read queue length does an incoming req see
system.mem_ctrls.rdQLenPdf::27                      0                       # What read queue length does an incoming req see
system.mem_ctrls.rdQLenPdf::28                      0                       # What read queue length does an incoming req see
system.mem_ctrls.rdQLenPdf::29                      0                       # What read queue length does an incoming req see
system.mem_ctrls.rdQLenPdf::30                      0                       # What read queue length does an incoming req see
system.mem_ctrls.rdQLenPdf::31                      0                       # What read queue length does an incoming req see
system.mem_ctrls.wrQLenPdf::0                       1                       # What write queue length does an incoming req see
system.mem_ctrls.wrQLenPdf::1                       1                       # What write queue length does an incoming req see
system.mem_ctrls.wrQLenPdf::2                       1                       # What write queue length does an incoming req see
system.mem_ctrls.wrQLenPdf::3                       1                       # What write queue length does an incoming req see
system.mem_ctrls.wrQLenPdf::4                       1                       # What write queue length does an incoming req see
system.mem_ctrls.wrQLenPdf::5                       1                       # What write queue length does an incoming req see
system.mem_ctrls.wrQLenPdf::6                       1                       # What write queue length does an incoming req see
system.mem_ctrls.wrQLenPdf::7                       1                       # What write queue length does an incoming req see
system.mem_ctrls.wrQLenPdf::8                       1                       # What write queue length does an incoming req see
system.mem_ctrls.wrQLenPdf::9                       1                       # What write queue length does an incoming req see
system.mem_ctrls.wrQLenPdf::10                      1                       # What write queue length does an incoming req see
system.mem_ctrls.wrQLenPdf::11                      1                       # What write queue length does an incoming req see
system.mem_ctrls.wrQLenPdf::12                      1                       # What write queue length does an incoming req see
system.mem_ctrls.wrQLenPdf::13                      1                       # What write queue length does an incoming req see
system.mem_ctrls.wrQLenPdf::14                      1                       # What write queue length does an incoming req see
system.mem_ctrls.wrQLenPdf::15                     83                       # What write queue length does an incoming req see
system.mem_ctrls.wrQLenPdf::16                     87                       # What write queue length does an incoming req see
system.mem_ctrls.wrQLenPdf::17                    133                       # What write queue length does an incoming req see
system.mem_ctrls.wrQLenPdf::18                    136                       # What write queue length does an incoming req see
system.mem_ctrls.wrQLenPdf::19                    135                       # What write queue length does an incoming req see
system.mem_ctrls.wrQLenPdf::20                    136                       # What write queue length does an incoming req see
system.mem_ctrls.wrQLenPdf::21                    135                       # What write queue length does an incoming req see
system.mem_ctrls.wrQLenPdf::22                    135                       # What write queue length does an incoming req see
system.mem_ctrls.wrQLenPdf::23                    135                       # What write queue length does an incoming req see
system.mem_ctrls.wrQLenPdf::24                    136                       # What write queue length does an incoming req see
system.mem_ctrls.wrQLenPdf::25                    137                       # What write queue length does an incoming req see
system.mem_ctrls.wrQLenPdf::26                    136                       # What write queue length does an incoming req see
system.mem_ctrls.wrQLenPdf::27                    135                       # What write queue length does an incoming req see
system.mem_ctrls.wrQLenPdf::28                    135                       # What write queue length does an incoming req see
system.mem_ctrls.wrQLenPdf::29                    135                       # What write queue length does an incoming req see
system.mem_ctrls.wrQLenPdf::30                    135                       # What write queue length does an incoming req see
system.mem_ctrls.wrQLenPdf::31                    135                       # What write queue length does an incoming req see
system.mem_ctrls.wrQLenPdf::32                    135                       # What write queue length does an incoming req see
system.mem_ctrls.wrQLenPdf::33                      0                       # What write queue length does an incoming req see
system.mem_ctrls.wrQLenPdf::34                      0                       # What write queue length does an incoming req see
system.mem_ctrls.wrQLenPdf::35                      0                       # What write queue length does an incoming req see
system.mem_ctrls.wrQLenPdf::36                      0                       # What write queue length does an incoming req see
system.mem_ctrls.wrQLenPdf::37                      0                       # What write queue length does an incoming req see
system.mem_ctrls.wrQLenPdf::38                      0                       # What write queue length does an incoming req see
system.mem_ctrls.wrQLenPdf::39                      0                       # What write queue length does an incoming req see
system.mem_ctrls.wrQLenPdf::40                      0                       # What write queue length does an incoming req see
system.mem_ctrls.wrQLenPdf::41                      0                       # What write queue length does an incoming req see
system.mem_ctrls.wrQLenPdf::42                      0                       # What write queue length does an incoming req see
system.mem_ctrls.wrQLenPdf::43                      0                       # What write queue length does an incoming req see
system.mem_ctrls.wrQLenPdf::44                      0                       # What write queue length does an incoming req see
system.mem_ctrls.wrQLenPdf::45                      0                       # What write queue length does an incoming req see
system.mem_ctrls.wrQLenPdf::46                      0                       # What write queue length does an incoming req see
system.mem_ctrls.wrQLenPdf::47                      0                       # What write queue length does an incoming req see
system.mem_ctrls.wrQLenPdf::48                      0                       # What write queue length does an incoming req see
system.mem_ctrls.wrQLenPdf::49                      0                       # What write queue length does an incoming req see
system.mem_ctrls.wrQLenPdf::50                      0                       # What write queue length does an incoming req see
system.mem_ctrls.wrQLenPdf::51                      0                       # What write queue length does an incoming req see
system.mem_ctrls.wrQLenPdf::52                      0                       # What write queue length does an incoming req see
system.mem_ctrls.wrQLenPdf::53                      0                       # What write queue length does an incoming req see
system.mem_ctrls.wrQLenPdf::54                      0                       # What write queue length does an incoming req see
system.mem_ctrls.wrQLenPdf::55                      0                       # What write queue length does an incoming req see
system.mem_ctrls.wrQLenPdf::56                      0                       # What write queue length does an incoming req see
system.mem_ctrls.wrQLenPdf::57                      0                       # What write queue length does an incoming req see
system.mem_ctrls.wrQLenPdf::58                      0                       # What write queue length does an incoming req see
system.mem_ctrls.wrQLenPdf::59                      0                       # What write queue length does an incoming req see
system.mem_ctrls.wrQLenPdf::60                      0                       # What write queue length does an incoming req see
system.mem_ctrls.wrQLenPdf::61                      0                       # What write queue length does an incoming req see
system.mem_ctrls.wrQLenPdf::62                      0                       # What write queue length does an incoming req see
system.mem_ctrls.wrQLenPdf::63                      0                       # What write queue length does an incoming req see
system.mem_ctrls.rdPerTurnAround::samples          135                       # Reads before turning the bus around for writes
system.mem_ctrls.rdPerTurnAround::mean     174.125926                       # Reads before turning the bus around for writes
system.mem_ctrls.rdPerTurnAround::gmean    105.660102                       # Reads before turning the bus around for writes
system.mem_ctrls.rdPerTurnAround::stdev    552.159281                       # Reads before turning the bus around for writes
system.mem_ctrls.rdPerTurnAround::0-255           125     92.59%     92.59% # Reads before turning the bus around for writes
system.mem_ctrls.rdPerTurnAround::256-511            6      4.44%     97.04% # Reads before turning the bus around for writes
system.mem_ctrls.rdPerTurnAround::512-767            2      1.48%     98.52% # Reads before turning the bus around for writes
system.mem_ctrls.rdPerTurnAround::768-1023            1      0.74%     99.26% # Reads before turning the bus around for writes
system.mem_ctrls.rdPerTurnAround::6144-6399            1      0.74%    100.00% # Reads before turning the bus around for writes
system.mem_ctrls.rdPerTurnAround::total           135                       # Reads before turning the bus around for writes
system.mem_ctrls.wrPerTurnAround::samples          135                       # Writes before turning the bus around for reads
system.mem_ctrls.wrPerTurnAround::mean      17.259259                       # Writes before turning the bus around for reads
system.mem_ctrls.wrPerTurnAround::gmean     17.231314                       # Writes before turning the bus around for reads
system.mem_ctrls.wrPerTurnAround::stdev      0.977073                       # Writes before turning the bus around for reads
system.mem_ctrls.wrPerTurnAround::16               49     36.30%     36.30% # Writes before turning the bus around for reads
system.mem_ctrls.wrPerTurnAround::17                4      2.96%     39.26% # Writes before turning the bus around for reads
system.mem_ctrls.wrPerTurnAround::18               80     59.26%     98.52% # Writes before turning the bus around for reads
system.mem_ctrls.wrPerTurnAround::19                2      1.48%    100.00% # Writes before turning the bus around for reads
system.mem_ctrls.wrPerTurnAround::total           135                       # Writes before turning the bus around for reads
system.mem_ctrls.bytesReadWrQ                     512                       # Total number of bytes read from write queue
system.mem_ctrls.bytesReadSys                  761952                       # Total read bytes from the system interface side
system.mem_ctrls.bytesWrittenSys                88096                       # Total written bytes from the system interface side
system.mem_ctrls.avgRdBWSys                      4.06                       # Average system read bandwidth in MiByte/s
system.mem_ctrls.avgWrBWSys                      0.47                       # Average system write bandwidth in MiByte/s
system.mem_ctrls.totGap                   19601871500                       # Total gap between requests
system.mem_ctrls.avgGap                     737911.14                       # Average gap between requests
system.mem_ctrls.requestorReadBytes::.cpu.inst        96128                       # Per-requestor bytes read from memory
system.mem_ctrls.requestorReadBytes::.cpu.data       665568                       # Per-requestor bytes read from memory
system.mem_ctrls.requestorWriteBytes::.writebacks        74560                       # Per-requestor bytes write to memory
system.mem_ctrls.requestorReadRate::.cpu.inst 512185.555756187474                       # Per-requestor bytes read from memory rate (Bytes/sec)
system.mem_ctrls.requestorReadRate::.cpu.data 3546254.119232004974                       # Per-requestor bytes read from memory rate (Bytes/sec)
system.mem_ctrls.requestorWriteRate::.writebacks 397267.757960025570                       # Per-requestor bytes write to memory rate (Bytes/sec)
system.mem_ctrls.requestorReadAccesses::.cpu.inst         3004                       # Per-requestor read serviced memory accesses
system.mem_ctrls.requestorReadAccesses::.cpu.data        20807                       # Per-requestor read serviced memory accesses
system.mem_ctrls.requestorWriteAccesses::.writebacks         2753                       # Per-requestor write serviced memory accesses
system.mem_ctrls.requestorReadTotalLat::.cpu.inst     75947000                       # Per-requestor read total memory access latency
[...]
system.mem_ctrls.dram.bw_total::.cpu.data      3547618                       # Total bandwidth to/from this memory (bytes/s)
system.mem_ctrls.dram.bw_total::total         4529193                       # Total bandwidth to/from this memory (bytes/s)
system.mem_ctrls.dram.readBursts                23803                       # Number of DRAM read bursts
system.mem_ctrls.dram.writeBursts                2330                       # Number of DRAM write bursts
system.mem_ctrls.dram.perBankRdBursts::0         1467                       # Per bank write bursts
system.mem_ctrls.dram.perBankRdBursts::1         1517                       # Per bank write bursts
system.mem_ctrls.dram.perBankRdBursts::2         1923                       # Per bank write bursts
system.mem_ctrls.dram.perBankRdBursts::3         1500                       # Per bank write bursts
system.mem_ctrls.dram.perBankRdBursts::4         1802                       # Per bank write bursts
system.mem_ctrls.dram.perBankRdBursts::5         1774                       # Per bank write bursts
system.mem_ctrls.dram.perBankRdBursts::6         1759                       # Per bank write bursts
system.mem_ctrls.dram.perBankRdBursts::7         1112                       # Per bank write bursts
system.mem_ctrls.dram.perBankRdBursts::8         1198                       # Per bank write bursts
system.mem_ctrls.dram.perBankRdBursts::9         1512                       # Per bank write bursts
system.mem_ctrls.dram.perBankRdBursts::10         1414                       # Per bank write bursts
system.mem_ctrls.dram.perBankRdBursts::11         1514                       # Per bank write bursts
system.mem_ctrls.dram.perBankRdBursts::12         1765                       # Per bank write bursts
system.mem_ctrls.dram.perBankRdBursts::13         1501                       # Per bank write bursts
system.mem_ctrls.dram.perBankRdBursts::14         1045                       # Per bank write bursts
system.mem_ctrls.dram.perBankRdBursts::15         1000                       # Per bank write bursts
system.mem_ctrls.dram.perBankWrBursts::0            0                       # Per bank write bursts
system.mem_ctrls.dram.perBankWrBursts::1          307                       # Per bank write bursts
system.mem_ctrls.dram.perBankWrBursts::2          264                       # Per bank write bursts
system.mem_ctrls.dram.perBankWrBursts::3            1                       # Per bank write bursts
system.mem_ctrls.dram.perBankWrBursts::4          239                       # Per bank write bursts
system.mem_ctrls.dram.perBankWrBursts::5           93                       # Per bank write bursts
system.mem_ctrls.dram.perBankWrBursts::6          197                       # Per bank write bursts
system.mem_ctrls.dram.perBankWrBursts::7          100                       # Per bank write bursts
system.mem_ctrls.dram.perBankWrBursts::8          106                       # Per bank write bursts
system.mem_ctrls.dram.perBankWrBursts::9          421                       # Per bank write bursts
system.mem_ctrls.dram.perBankWrBursts::10          262                       # Per bank write bursts
system.mem_ctrls.dram.perBankWrBursts::11          141                       # Per bank write bursts
system.mem_ctrls.dram.perBankWrBursts::12          161                       # Per bank write bursts
system.mem_ctrls.dram.perBankWrBursts::13           38                       # Per bank write bursts
system.mem_ctrls.dram.perBankWrBursts::14            0                       # Per bank write bursts
system.mem_ctrls.dram.perBankWrBursts::15            0                       # Per bank write bursts
system.mem_ctrls.dram.totQLat               230870500                       # Total ticks spent queuing
system.mem_ctrls.dram.totBusLat             119015000                       # Total ticks spent in databus transfers
system.mem_ctrls.dram.totMemAccLat          677176750                       # Total ticks spent from burst creation until serviced by the DRAM
system.mem_ctrls.dram.avgQLat                 9699.22                       # Average queueing delay per DRAM burst
system.mem_ctrls.dram.avgBusLat               5000.00                       # Average bus latency per DRAM burst
system.mem_ctrls.dram.avgMemAccLat           28449.22                       # Average memory access latency per DRAM burst
system.mem_ctrls.dram.readRowHits               15820                       # Number of row buffer hits during reads
system.mem_ctrls.dram.writeRowHits               1778                       # Number of row buffer hits during writes
system.mem_ctrls.dram.readRowHitRate            66.46                       # Row buffer hit rate for reads
system.mem_ctrls.dram.writeRowHitRate           76.31                       # Row buffer hit rate for writes
system.mem_ctrls.dram.bytesPerActivate::samples         8535                       # Bytes accessed per row activation
system.mem_ctrls.dram.bytesPerActivate::mean   195.959227                       # Bytes accessed per row activation
system.mem_ctrls.dram.bytesPerActivate::gmean   124.790280                       # Bytes accessed per row activation
system.mem_ctrls.dram.bytesPerActivate::stdev   240.409580                       # Bytes accessed per row activation
system.mem_ctrls.dram.bytesPerActivate::0-127         4401     51.56%     51.56% # Bytes accessed per row activation
system.mem_ctrls.dram.bytesPerActivate::128-255         2238     26.22%     77.79% # Bytes accessed per row activation
system.mem_ctrls.dram.bytesPerActivate::256-383          666      7.80%     85.59% # Bytes accessed per row activation
system.mem_ctrls.dram.bytesPerActivate::384-511          351      4.11%     89.70% # Bytes accessed per row activation
system.mem_ctrls.dram.bytesPerActivate::512-639          236      2.77%     92.47% # Bytes accessed per row activation
system.mem_ctrls.dram.bytesPerActivate::640-767          111      1.30%     93.77% # Bytes accessed per row activation
system.mem_ctrls.dram.bytesPerActivate::768-895           69      0.81%     94.58% # Bytes accessed per row activation
system.mem_ctrls.dram.bytesPerActivate::896-1023           57      0.67%     95.24% # Bytes accessed per row activation
system.mem_ctrls.dram.bytesPerActivate::1024-1151          406      4.76%    100.00% # Bytes accessed per row activation
system.mem_ctrls.dram.bytesPerActivate::total         8535                       # Bytes accessed per row activation
system.mem_ctrls.dram.bytesRead               1523392                       # Total number of bytes read from DRAM
system.mem_ctrls.dram.bytesWritten             149120                       # Total number of bytes written to DRAM
system.mem_ctrls.dram.avgRdBW                8.116879                       # Average DRAM read bandwidth in MiBytes/s
system.mem_ctrls.dram.avgWrBW                0.794536                       # Average DRAM write bandwidth in MiBytes/s
system.mem_ctrls.dram.peakBW                 12800.00                       # Theoretical peak bandwidth in MiByte/s
system.mem_ctrls.dram.busUtil                    0.07                       # Data bus utilization in percentage
system.mem_ctrls.dram.busUtilRead                0.06                       # Data bus utilization in percentage for reads
system.mem_ctrls.dram.busUtilWrite               0.01                       # Data bus utilization in percentage for writes
system.mem_ctrls.dram.pageHitRate               67.34                       # Row buffer hit rate, read and write combined
system.mem_ctrls.dram.power_state.pwrStateResidencyTicks::UNDEFINED 187681981500                       # Cumulative time (in ticks) in various power states
system.mem_ctrls.dram.rank0.actEnergy        32130000                       # Energy for activate commands per rank (pJ)
system.mem_ctrls.dram.rank0.preEnergy        17077500                       # Energy for precharge commands per rank (pJ)
system.mem_ctrls.dram.rank0.readEnergy       91777560                       # Energy for read commands per rank (pJ)
system.mem_ctrls.dram.rank0.writeEnergy       6269220                       # Energy for write commands per rank (pJ)
system.mem_ctrls.dram.rank0.refreshEnergy 14815282560.000002                       # Energy for refresh commands per rank (pJ)
system.mem_ctrls.dram.rank0.actBackEnergy   4916163930                       # Energy for active background per rank (pJ)
system.mem_ctrls.dram.rank0.preBackEnergy  67929953760                       # Energy for precharge background per rank (pJ)
system.mem_ctrls.dram.rank0.actPowerDownEnergy            0                       # Energy for active power-down per rank (pJ)
system.mem_ctrls.dram.rank0.prePowerDownEnergy            0                       # Energy for precharge power-down per rank (pJ)
system.mem_ctrls.dram.rank0.selfRefreshEnergy            0                       # Energy for self refresh per rank (pJ)
system.mem_ctrls.dram.rank0.totalEnergy   87808654530                       # Total energy per rank (pJ)
system.mem_ctrls.dram.rank0.averagePower   467.858735                       # Core power per rank (mW)
system.mem_ctrls.dram.rank0.totalIdleTime            0                       # Total Idle time Per DRAM Rank
system.mem_ctrls.dram.rank0.pwrStateTime::IDLE 176554952750                       # Time in different power states
system.mem_ctrls.dram.rank0.pwrStateTime::REF   6267040000                       # Time in different power states
system.mem_ctrls.dram.rank0.pwrStateTime::SREF            0                       # Time in different power states
system.mem_ctrls.dram.rank0.pwrStateTime::PRE_PDN            0                       # Time in different power states
system.mem_ctrls.dram.rank0.pwrStateTime::ACT   4859988750                       # Time in different power states
system.mem_ctrls.dram.rank0.pwrStateTime::ACT_PDN            0                       # Time in different power states
system.mem_ctrls.dram.rank1.actEnergy        28809900                       # Energy for activate commands per rank (pJ)
system.mem_ctrls.dram.rank1.preEnergy        15312825                       # Energy for precharge commands per rank (pJ)
system.mem_ctrls.dram.rank1.readEnergy       78175860                       # Energy for read commands per rank (pJ)
system.mem_ctrls.dram.rank1.writeEnergy       5893380                       # Energy for write commands per rank (pJ)
system.mem_ctrls.dram.rank1.refreshEnergy 14815282560.000002                       # Energy for refresh commands per rank (pJ)
system.mem_ctrls.dram.rank1.actBackEnergy   4907338050                       # Energy for active background per rank (pJ)
system.mem_ctrls.dram.rank1.preBackEnergy  67937386080                       # Energy for precharge background per rank (pJ)
system.mem_ctrls.dram.rank1.actPowerDownEnergy            0                       # Energy for active power-down per rank (pJ)
system.mem_ctrls.dram.rank1.prePowerDownEnergy            0                       # Energy for precharge power-down per rank (pJ)
system.mem_ctrls.dram.rank1.selfRefreshEnergy            0                       # Energy for self refresh per rank (pJ)
system.mem_ctrls.dram.rank1.totalEnergy   87788198655                       # Total energy per rank (pJ)
system.mem_ctrls.dram.rank1.averagePower   467.749743                       # Core power per rank (mW)
system.mem_ctrls.dram.rank1.totalIdleTime            0                       # Total Idle time Per DRAM Rank
system.mem_ctrls.dram.rank1.pwrStateTime::IDLE 176576795500                       # Time in different power states
system.mem_ctrls.dram.rank1.pwrStateTime::REF   6267040000                       # Time in different power states
system.mem_ctrls.dram.rank1.pwrStateTime::SREF            0                       # Time in different power states
system.mem_ctrls.dram.rank1.pwrStateTime::PRE_PDN            0                       # Time in different power states
system.mem_ctrls.dram.rank1.pwrStateTime::ACT   4838146000                       # Time in different power states
system.mem_ctrls.dram.rank1.pwrStateTime::ACT_PDN            0                       # Time in different power states
system.mem_ctrls.power_state.pwrStateResidencyTicks::UNDEFINED 187681981500                       # Cumulative time (in ticks) in various power states
system.membus.trans_dist::ReadResp              19642                       # Transaction distribution
system.membus.trans_dist::WritebackDirty         2753                       # Transaction distribution
system.membus.trans_dist::CleanEvict            13233                       # Transaction distribution
system.membus.trans_dist::ReadExReq              4169                       # Transaction distribution
system.membus.trans_dist::ReadExResp             4169                       # Transaction distribution
system.membus.trans_dist::ReadSharedReq         19642                       # Transaction distribution
system.membus.pkt_count_system.l2.mem_side_port::system.mem_ctrls.port        63608                       # Packet count per connected requestor and responder (bytes)
system.membus.pkt_count_system.l2.mem_side_port::total        63608                       # Packet count per connected requestor and responder (bytes)
system.membus.pkt_count::total                  63608                       # Packet count per connected requestor and responder (bytes)
system.membus.pkt_size_system.l2.mem_side_port::system.mem_ctrls.port       850048                       # Cumulative packet size per connected requestor and responder (bytes)
system.membus.pkt_size_system.l2.mem_side_port::total       850048                       # Cumulative packet size per connected requestor and responder (bytes)
system.membus.pkt_size::total                  850048                       # Cumulative packet size per connected requestor and responder (bytes)
system.membus.snoops                                0                       # Total snoops (count)
system.membus.snoopTraffic                          0                       # Total snoop traffic (bytes)
system.membus.snoop_fanout::samples             23811                       # Request fanout histogram
system.membus.snoop_fanout::mean                    0                       # Request fanout histogram
system.membus.snoop_fanout::stdev                   0                       # Request fanout histogram
system.membus.snoop_fanout::underflows              0      0.00%      0.00% # Request fanout histogram
system.membus.snoop_fanout::0                   23811    100.00%    100.00% # Request fanout histogram
system.membus.snoop_fanout::1                       0      0.00%    100.00% # Request fanout histogram
system.membus.snoop_fanout::overflows               0      0.00%    100.00% # Request fanout histogram
system.membus.snoop_fanout::min_value               0                       # Request fanout histogram
system.membus.snoop_fanout::max_value               0                       # Request fanout histogram
system.membus.snoop_fanout::total               23811                       # Request fanout histogram
system.membus.power_state.pwrStateResidencyTicks::UNDEFINED 187681981500                       # Cumulative time (in ticks) in various power states
system.membus.reqLayer2.occupancy            45325000                       # Layer occupancy (ticks)
system.membus.reqLayer2.utilization               0.0                       # Layer utilization (%)
system.membus.respLayer1.occupancy           79922250                       # Layer occupancy (ticks)
system.membus.respLayer1.utilization              0.0                       # Layer utilization (%)
system.tol2bus.trans_dist::ReadResp             19988                       # Transaction distribution
system.tol2bus.trans_dist::WritebackDirty         6110                       # Transaction distribution
system.tol2bus.trans_dist::WritebackClean          501                       # Transaction distribution
system.tol2bus.trans_dist::CleanEvict           33924                       # Transaction distribution
system.tol2bus.trans_dist::ReadExReq             4419                       # Transaction distribution
system.tol2bus.trans_dist::ReadExResp            4419                       # Transaction distribution
system.tol2bus.trans_dist::ReadCleanReq          3013                       # Transaction distribution
system.tol2bus.trans_dist::ReadSharedReq        16975                       # Transaction distribution
system.tol2bus.pkt_count_system.cpu.icache.mem_side_port::system.l2.cpu_side_port         6527                       # Packet count per connected requestor and responder (bytes)
system.tol2bus.pkt_count_system.cpu.dcache.mem_side_port::system.l2.cpu_side_port        60086                       # Packet count per connected requestor and responder (bytes)
system.tol2bus.pkt_count::total                 66613                       # Packet count per connected requestor and responder (bytes)
system.tol2bus.pkt_size_system.cpu.icache.mem_side_port::system.l2.cpu_side_port       112448                       # Cumulative packet size per connected requestor and responder (bytes)
system.tol2bus.pkt_size_system.cpu.dcache.mem_side_port::system.l2.cpu_side_port       792032                       # Cumulative packet size per connected requestor and responder (bytes)
system.tol2bus.pkt_size::total                 904480                       # Cumulative packet size per connected requestor and responder (bytes)
system.tol2bus.snoops                           22736                       # Total snoops (count)
system.tol2bus.snoopTraffic                     88096                       # Total snoop traffic (bytes)
system.tol2bus.snoop_fanout::samples            47143                       # Request fanout histogram
system.tol2bus.snoop_fanout::mean            0.340814                       # Request fanout histogram
system.tol2bus.snoop_fanout::stdev           0.473988                       # Request fanout histogram
system.tol2bus.snoop_fanout::underflows             0      0.00%      0.00% # Request fanout histogram
system.tol2bus.snoop_fanout::0                  31076     65.92%     65.92% # Request fanout histogram
system.tol2bus.snoop_fanout::1                  16067     34.08%    100.00% # Request fanout histogram
system.tol2bus.snoop_fanout::2                      0      0.00%    100.00% # Request fanout histogram
system.tol2bus.snoop_fanout::3                      0      0.00%    100.00% # Request fanout histogram
system.tol2bus.snoop_fanout::4                      0      0.00%    100.00% # Request fanout histogram
system.tol2bus.snoop_fanout::overflows              0      0.00%    100.00% # Request fanout histogram
system.tol2bus.snoop_fanout::min_value              0                       # Request fanout histogram
system.tol2bus.snoop_fanout::max_value              1                       # Request fanout histogram
system.tol2bus.snoop_fanout::total              47143                       # Request fanout histogram
system.tol2bus.power_state.pwrStateResidencyTicks::UNDEFINED 187681981500                       # Cumulative time (in ticks) in various power states
system.tol2bus.reqLayer0.occupancy           23032000                       # Layer occupancy (ticks)
system.tol2bus.reqLayer0.utilization              0.0                       # Layer utilization (%)
system.tol2bus.respLayer0.occupancy           3013000                       # Layer occupancy (ticks)
system.tol2bus.respLayer0.utilization             0.0                       # Layer utilization (%)
system.tol2bus.respLayer1.occupancy          21394000                       # Layer occupancy (ticks)
system.tol2bus.respLayer1.utilization             0.0                       # Layer utilization (%)
system.voltage_domain.voltage                       1                       # Voltage in Volts

---------- End Simulation Statistics   ----------
