
---------- Begin Simulation Statistics ----------
final_tick                                 1468149500                       # Number of ticks from beginning of simulation (restored from checkpoints and never reset)
host_inst_rate                                 124473                       # Simulator instruction rate (inst/s)
host_mem_usage                                 799264                       # Number of bytes of host memory used
host_op_rate                                   232306                       # Simulator op (including micro ops) rate (op/s)
host_seconds                                     3.78                       # Real time elapsed on the host
host_tick_rate                              388515489                       # Simulator tick rate (ticks/s)
sim_freq                                 1000000000000                       # Frequency of simulated ticks
sim_insts                                      470280                       # Number of instructions simulated
sim_ops                                        877835                       # Number of ops (including micro ops) simulated
sim_seconds                                  0.001468                       # Number of seconds simulated
sim_ticks                                  1468149500                       # Number of ticks simulated
system.cpu.Branches                             72604                       # Number of branches fetched
system.cpu.committedInsts                      470280                       # Number of instructions committed
system.cpu.committedOps                        877835                       # Number of ops (including micro ops) committed
system.cpu.idle_fraction                     0.000000                       # Percentage of idle cycles
system.cpu.not_idle_fraction                 1.000000                       # Percentage of non-idle cycles
system.cpu.numCycles                          2936299                       # number of cpu cycles simulated
system.cpu.numWorkItemsCompleted                    0                       # number of work items this cpu completed
system.cpu.numWorkItemsStarted                      0                       # number of work items this cpu started
system.cpu.num_busy_cycles               2936298.998000                       # Number of busy cycles
system.cpu.num_cc_register_reads               329877                       # number of times the CC registers were read
system.cpu.num_cc_register_writes              220612                       # number of times the CC registers were written
system.cpu.num_conditional_control_insts        50060                       # number of instructions that are conditional controls
system.cpu.num_fp_alu_accesses                 253735                       # Number of float alu accesses
system.cpu.num_fp_insts                        253735                       # number of float instructions
system.cpu.num_fp_register_reads               239399                       # number of times the floating registers were read
system.cpu.num_fp_register_writes              213269                       # number of times the floating registers were written
system.cpu.num_func_calls                       13694                       # number of times a function call or return occured
system.cpu.num_idle_cycles                   0.002000                       # Number of idle cycles
system.cpu.num_int_alu_accesses                720319                       # Number of integer alu accesses
system.cpu.num_int_insts                       720319                       # number of integer instructions
system.cpu.num_int_register_reads             1479845                       # number of times the integer registers were read
system.cpu.num_int_register_writes             517806                       # number of times the integer registers were written
system.cpu.num_load_insts                      144784                       # Number of load instructions
system.cpu.num_mem_refs                        211985                       # number of memory refs
system.cpu.num_store_insts                      67201                       # Number of store instructions
system.cpu.num_vec_alu_accesses                     0                       # Number of vector alu accesses
system.cpu.num_vec_insts                            0                       # number of vector instructions
system.cpu.num_vec_register_reads                   0                       # number of times the vector registers were read
system.cpu.num_vec_register_writes                  0                       # number of times the vector registers were written
system.cpu.op_class::No_OpClass                 11339      1.29%      1.29% # Class of executed instruction
system.cpu.op_class::IntAlu                    504634     57.48%     58.77% # Class of executed instruction
system.cpu.op_class::IntMult                      123      0.01%     58.78% # Class of executed instruction
system.cpu.op_class::IntDiv                      2125      0.24%     59.02% # Class of executed instruction
system.cpu.op_class::FloatAdd                   69680      7.94%     66.96% # Class of executed instruction
system.cpu.op_class::FloatCmp                       0      0.00%     66.96% # Class of executed instruction
system.cpu.op_class::FloatCvt                      32      0.00%     66.96% # Class of executed instruction
system.cpu.op_class::FloatMult                      0      0.00%     66.96% # Class of executed instruction
system.cpu.op_class::FloatMultAcc                   0      0.00%     66.96% # Class of executed instruction
system.cpu.op_class::FloatDiv                       0      0.00%     66.96% # Class of executed instruction
system.cpu.op_class::FloatMisc                      0      0.00%     66.96% # Class of executed instruction
system.cpu.op_class::FloatSqrt                      0      0.00%     66.96% # Class of executed instruction
system.cpu.op_class::SimdAdd                      554      0.06%     67.03% # Class of executed instruction
system.cpu.op_class::SimdAddAcc                     0      0.00%     67.03% # Class of executed instruction
system.cpu.op_class::SimdAlu                     9039      1.03%     68.06% # Class of executed instruction
system.cpu.op_class::SimdCmp                        0      0.00%     68.06% # Class of executed instruction
system.cpu.op_class::SimdCvt                     1366      0.16%     68.21% # Class of executed instruction
system.cpu.op_class::SimdMisc                   11506      1.31%     69.52% # Class of executed instruction
system.cpu.op_class::SimdMult                       0      0.00%     69.52% # Class of executed instruction
system.cpu.op_class::SimdMultAcc                    0      0.00%     69.52% # Class of executed instruction
system.cpu.op_class::SimdShift                    174      0.02%     69.54% # Class of executed instruction
system.cpu.op_class::SimdShiftAcc                   0      0.00%     69.54% # Class of executed instruction
system.cpu.op_class::SimdDiv                        0      0.00%     69.54% # Class of executed instruction
system.cpu.op_class::SimdSqrt                       0      0.00%     69.54% # Class of executed instruction
system.cpu.op_class::SimdFloatAdd               15212      1.73%     71.28% # Class of executed instruction
system.cpu.op_class::SimdFloatAlu                   0      0.00%     71.28% # Class of executed instruction
system.cpu.op_class::SimdFloatCmp                   0      0.00%     71.28% # Class of executed instruction
system.cpu.op_class::SimdFloatCvt               15412      1.76%     73.03% # Class of executed instruction
system.cpu.op_class::SimdFloatDiv                1600      0.18%     73.21% # Class of executed instruction
system.cpu.op_class::SimdFloatMisc                  0      0.00%     73.21% # Class of executed instruction
system.cpu.op_class::SimdFloatMult              22800      2.60%     75.81% # Class of executed instruction
system.cpu.op_class::SimdFloatMultAcc               0      0.00%     75.81% # Class of executed instruction
system.cpu.op_class::SimdFloatSqrt                400      0.05%     75.86% # Class of executed instruction
system.cpu.op_class::SimdReduceAdd                  0      0.00%     75.86% # Class of executed instruction
system.cpu.op_class::SimdReduceAlu                  0      0.00%     75.86% # Class of executed instruction
system.cpu.op_class::SimdReduceCmp                  0      0.00%     75.86% # Class of executed instruction
system.cpu.op_class::SimdFloatReduceAdd             0      0.00%     75.86% # Class of executed instruction
system.cpu.op_class::SimdFloatReduceCmp             0      0.00%     75.86% # Class of executed instruction
system.cpu.op_class::SimdAes                        0      0.00%     75.86% # Class of executed instruction
system.cpu.op_class::SimdAesMix                     0      0.00%     75.86% # Class of executed instruction
system.cpu.op_class::SimdSha1Hash                   0      0.00%     75.86% # Class of executed instruction
system.cpu.op_class::SimdSha1Hash2                  0      0.00%     75.86% # Class of executed instruction
system.cpu.op_class::SimdSha256Hash                 0      0.00%     75.86% # Class of executed instruction
system.cpu.op_class::SimdSha256Hash2                0      0.00%     75.86% # Class of executed instruction
system.cpu.op_class::SimdShaSigma2                  0      0.00%     75.86% # Class of executed instruction
system.cpu.op_class::SimdShaSigma3                  0      0.00%     75.86% # Class of executed instruction
system.cpu.op_class::SimdPredAlu                    0      0.00%     75.86% # Class of executed instruction
system.cpu.op_class::MemRead                    82126      9.35%     85.21% # Class of executed instruction
system.cpu.op_class::MemWrite                   33564      3.82%     89.03% # Class of executed instruction
system.cpu.op_class::FloatMemRead               62658      7.14%     96.17% # Class of executed instruction
system.cpu.op_class::FloatMemWrite              33637      3.83%    100.00% # Class of executed instruction
system.cpu.op_class::IprAccess                      0      0.00%    100.00% # Class of executed instruction
system.cpu.op_class::InstPrefetch                   0      0.00%    100.00% # Class of executed instruction
system.cpu.op_class::total                     877981                       # Class of executed instruction
system.cpu.workload.numSyscalls                    57                       # Number of system calls
system.membus.snoop_filter.hit_multi_requests            0                       # Number of requests hitting in the snoop filter with multiple (>1) holders of the requested data.
system.membus.snoop_filter.hit_multi_snoops            0                       # Number of snoops hitting in the snoop filter with multiple (>1) holders of the requested data.
system.membus.snoop_filter.hit_single_requests         1064                       # Number of requests hitting in the snoop filter with a single holder of the requested data.
system.membus.snoop_filter.hit_single_snoops            0                       # Number of snoops hitting in the snoop filter with a single holder of the requested data.
system.membus.snoop_filter.tot_requests          9000                       # Total number of requests made to the snoop filter.
system.membus.snoop_filter.tot_snoops               0                       # Total number of snoops made to the snoop filter.
system.tol2bus.snoop_filter.hit_multi_requests            0                       # Number of requests hitting in the snoop filter with multiple (>1) holders of the requested data.
system.tol2bus.snoop_filter.hit_multi_snoops            0                       # Number of snoops hitting in the snoop filter with multiple (>1) holders of the requested data.
system.tol2bus.snoop_filter.hit_single_requests         1511                       # Number of requests hitting in the snoop filter with a single holder of the requested data.
system.tol2bus.snoop_filter.hit_single_snoops         4195                       # Number of snoops hitting in the snoop filter with a single holder of the requested data.
system.tol2bus.snoop_filter.tot_requests         9549                       # Total number of requests made to the snoop filter.
system.tol2bus.snoop_filter.tot_snoops           4195                       # Total number of snoops made to the snoop filter.
system.clk_domain.clock                          1000                       # Clock period in ticks
system.cpu.dcache.demand_hits::.cpu.data       214351                       # number of demand (read+write) hits
system.cpu.dcache.demand_hits::total           214351                       # number of demand (read+write) hits
system.cpu.dcache.overall_hits::.cpu.data       214351                       # number of overall hits
system.cpu.dcache.overall_hits::total          214351                       # number of overall hits
system.cpu.dcache.demand_misses::.cpu.data         5395                       # number of demand (read+write) misses
system.cpu.dcache.demand_misses::total           5395                       # number of demand (read+write) misses
system.cpu.dcache.overall_misses::.cpu.data         5395                       # number of overall misses
system.cpu.dcache.overall_misses::total          5395                       # number of overall misses
system.cpu.dcache.demand_miss_latency::.cpu.data    413253500                       # number of demand (read+write) miss cycles
system.cpu.dcache.demand_miss_latency::total    413253500                       # number of demand (read+write) miss cycles
system.cpu.dcache.overall_miss_latency::.cpu.data    413253500                       # number of overall miss cycles
system.cpu.dcache.overall_miss_latency::total    413253500                       # number of overall miss cycles
system.cpu.dcache.demand_accesses::.cpu.data       219746                       # number of demand (read+write) accesses
system.cpu.dcache.demand_accesses::total       219746                       # number of demand (read+write) accesses
system.cpu.dcache.overall_accesses::.cpu.data       219746                       # number of overall (read+write) accesses
system.cpu.dcache.overall_accesses::total       219746                       # number of overall (read+write) accesses
system.cpu.dcache.demand_miss_rate::.cpu.data     0.024551                       # miss rate for demand accesses
system.cpu.dcache.demand_miss_rate::total     0.024551                       # miss rate for demand accesses
system.cpu.dcache.overall_miss_rate::.cpu.data     0.024551                       # miss rate for overall accesses
system.cpu.dcache.overall_miss_rate::total     0.024551                       # miss rate for overall accesses
system.cpu.dcache.demand_avg_miss_latency::.cpu.data 76599.351251                       # average overall miss latency
system.cpu.dcache.demand_avg_miss_latency::total 76599.351251                       # average overall miss latency
system.cpu.dcache.overall_avg_miss_latency::.cpu.data 76599.351251                       # average overall miss latency
system.cpu.dcache.overall_avg_miss_latency::total 76599.351251                       # average overall miss latency
system.cpu.dcache.blocked_cycles::no_mshrs            0                       # number of cycles access was blocked
system.cpu.dcache.blocked_cycles::no_targets            0                       # number of cycles access was blocked
system.cpu.dcache.blocked::no_mshrs                 0                       # number of cycles access was blocked
system.cpu.dcache.blocked::no_targets               0                       # number of cycles access was blocked
system.cpu.dcache.avg_blocked_cycles::no_mshrs          nan                       # average number of cycles each access was blocked
system.cpu.dcache.avg_blocked_cycles::no_targets          nan                       # average number of cycles each access was blocked
system.cpu.dcache.writebacks::.writebacks          557                       # number of writebacks
system.cpu.dcache.writebacks::total               557                       # number of writebacks
system.cpu.dcache.demand_mshr_misses::.cpu.data         5395                       # number of demand (read+write) MSHR misses
system.cpu.dcache.demand_mshr_misses::total         5395                       # number of demand (read+write) MSHR misses
system.cpu.dcache.overall_mshr_misses::.cpu.data         5395                       # number of overall MSHR misses
system.cpu.dcache.overall_mshr_misses::total         5395                       # number of overall MSHR misses
system.cpu.dcache.demand_mshr_miss_latency::.cpu.data    407858500                       # number of demand (read+write) MSHR miss cycles
system.cpu.dcache.demand_mshr_miss_latency::total    407858500                       # number of demand (read+write) MSHR miss cycles
system.cpu.dcache.overall_mshr_miss_latency::.cpu.data    407858500                       # number of overall MSHR miss cycles
system.cpu.dcache.overall_mshr_miss_latency::total    407858500                       # number of overall MSHR miss cycles
system.cpu.dcache.demand_mshr_miss_rate::.cpu.data     0.024551                       # mshr miss rate for demand accesses
system.cpu.dcache.demand_mshr_miss_rate::total     0.024551                       # mshr miss rate for demand accesses
system.cpu.dcache.overall_mshr_miss_rate::.cpu.data     0.024551                       # mshr miss rate for overall accesses
system.cpu.dcache.overall_mshr_miss_rate::total     0.024551                       # mshr miss rate for overall accesses
system.cpu.dcache.demand_avg_mshr_miss_latency::.cpu.data 75599.351251                       # average overall mshr miss latency
system.cpu.dcache.demand_avg_mshr_miss_latency::total 75599.351251                       # average overall mshr miss latency
system.cpu.dcache.overall_avg_mshr_miss_latency::.cpu.data 75599.351251                       # average overall mshr miss latency
system.cpu.dcache.overall_avg_mshr_miss_latency::total 75599.351251                       # average overall mshr miss latency
system.cpu.dcache.replacements                   1511                       # number of replacements
system.cpu.dcache.ReadReq_hits::.cpu.data       148305                       # number of ReadReq hits
system.cpu.dcache.ReadReq_hits::total          148305                       # number of ReadReq hits
system.cpu.dcache.ReadReq_misses::.cpu.data         4257                       # number of ReadReq misses
system.cpu.dcache.ReadReq_misses::total          4257                       # number of ReadReq misses
system.cpu.dcache.ReadReq_miss_latency::.cpu.data    326183000                       # number of ReadReq miss cycles
system.cpu.dcache.ReadReq_miss_latency::total    326183000                       # number of ReadReq miss cycles
system.cpu.dcache.ReadReq_accesses::.cpu.data       152562                       # number of ReadReq accesses(hits+misses)
system.cpu.dcache.ReadReq_accesses::total       152562                       # number of ReadReq accesses(hits+misses)
system.cpu.dcache.ReadReq_miss_rate::.cpu.data     0.027903                       # miss rate for ReadReq accesses
system.cpu.dcache.ReadReq_miss_rate::total     0.027903                       # miss rate for ReadReq accesses
system.cpu.dcache.ReadReq_avg_miss_latency::.cpu.data 76622.739018                       # average ReadReq miss latency
system.cpu.dcache.ReadReq_avg_miss_latency::total 76622.739018                       # average ReadReq miss latency
system.cpu.dcache.ReadReq_mshr_misses::.cpu.data         4257                       # number of ReadReq MSHR misses
system.cpu.dcache.ReadReq_mshr_misses::total         4257                       # number of ReadReq MSHR misses
system.cpu.dcache.ReadReq_mshr_miss_latency::.cpu.data    321926000                       # number of ReadReq MSHR miss cycles
system.cpu.dcache.ReadReq_mshr_miss_latency::total    321926000                       # number of ReadReq MSHR miss cycles
system.cpu.dcache.ReadReq_mshr_miss_rate::.cpu.data     0.027903                       # mshr miss rate for ReadReq accesses
system.cpu.dcache.ReadReq_mshr_miss_rate::total     0.027903                       # mshr miss rate for ReadReq accesses
system.cpu.dcache.ReadReq_avg_mshr_miss_latency::.cpu.data 75622.739018                       # average ReadReq mshr miss latency
system.cpu.dcache.ReadReq_avg_mshr_miss_latency::total 75622.739018                       # average ReadReq mshr miss latency
system.cpu.dcache.WriteReq_hits::.cpu.data        66046                       # number of WriteReq hits
system.cpu.dcache.WriteReq_hits::total          66046                       # number of WriteReq hits
system.cpu.dcache.WriteReq_misses::.cpu.data         1138                       # number of WriteReq misses
system.cpu.dcache.WriteReq_misses::total         1138                       # number of WriteReq misses
system.cpu.dcache.WriteReq_miss_latency::.cpu.data     87070500                       # number of WriteReq miss cycles
system.cpu.dcache.WriteReq_miss_latency::total     87070500                       # number of WriteReq miss cycles
system.cpu.dcache.WriteReq_accesses::.cpu.data        67184                       # number of WriteReq accesses(hits+misses)
system.cpu.dcache.WriteReq_accesses::total        67184                       # number of WriteReq accesses(hits+misses)
system.cpu.dcache.WriteReq_miss_rate::.cpu.data     0.016939                       # miss rate for WriteReq accesses
system.cpu.dcache.WriteReq_miss_rate::total     0.016939                       # miss rate for WriteReq accesses
system.cpu.dcache.WriteReq_avg_miss_latency::.cpu.data 76511.862917                       # average WriteReq miss latency
system.cpu.dcache.WriteReq_avg_miss_latency::total 76511.862917                       # average WriteReq miss latency
system.cpu.dcache.WriteReq_mshr_misses::.cpu.data         1138                       # number of WriteReq MSHR misses
system.cpu.dcache.WriteReq_mshr_misses::total         1138                       # number of WriteReq MSHR misses
system.cpu.dcache.WriteReq_mshr_miss_latency::.cpu.data     85932500                       # number of WriteReq MSHR miss cycles
system.cpu.dcache.WriteReq_mshr_miss_latency::total     85932500                       # number of WriteReq MSHR miss cycles
system.cpu.dcache.WriteReq_mshr_miss_rate::.cpu.data     0.016939                       # mshr miss rate for WriteReq accesses
system.cpu.dcache.WriteReq_mshr_miss_rate::total     0.016939                       # mshr miss rate for WriteReq accesses
system.cpu.dcache.WriteReq_avg_mshr_miss_latency::.cpu.data 75511.862917                       # average WriteReq mshr miss latency
system.cpu.dcache.WriteReq_avg_mshr_miss_latency::total 75511.862917                       # average WriteReq mshr miss latency
system.cpu.dcache.power_state.pwrStateResidencyTicks::UNDEFINED   1468149500                       # Cumulative time (in ticks) in various power states
system.cpu.dcache.tags.tagsinuse          2954.838216                       # Cycle average of tags in use
system.cpu.dcache.tags.total_refs              219746                       # Total number of references to valid blocks.
system.cpu.dcache.tags.sampled_refs              5395                       # Sample count of references to valid blocks.
system.cpu.dcache.tags.avg_refs             40.731418                       # Average number of references to valid blocks.
system.cpu.dcache.tags.warmup_cycle            174500                       # Cycle when the warmup percentage was hit.
system.cpu.dcache.tags.occ_blocks::.cpu.data  2954.838216                       # Average occupied blocks per requestor
system.cpu.dcache.tags.occ_percent::.cpu.data     0.721396                       # Average percentage of cache occupancy
system.cpu.dcache.tags.occ_percent::total     0.721396                       # Average percentage of cache occupancy
system.cpu.dcache.tags.occ_task_id_blocks::1024         3884                       # Occupied blocks per task id
system.cpu.dcache.tags.age_task_id_blocks_1024::0           27                       # Occupied blocks per task id
system.cpu.dcache.tags.age_task_id_blocks_1024::1           19                       # Occupied blocks per task id
system.cpu.dcache.tags.age_task_id_blocks_1024::2         2300                       # Occupied blocks per task id
system.cpu.dcache.tags.age_task_id_blocks_1024::3         1538                       # Occupied blocks per task id
system.cpu.dcache.tags.occ_task_id_percent::1024     0.948242                       # Percentage of cache occupancy per task id
system.cpu.dcache.tags.tag_accesses            444887                       # Number of tag accesses
system.cpu.dcache.tags.data_accesses           444887                       # Number of data accesses
system.cpu.dcache.tags.power_state.pwrStateResidencyTicks::UNDEFINED   1468149500                       # Cumulative time (in ticks) in various power states
system.cpu.dtb.rdAccesses                      152635                       # TLB accesses on read requests
system.cpu.dtb.wrAccesses                       67201                       # TLB accesses on write requests
system.cpu.dtb.rdMisses                           234                       # TLB misses on read requests
system.cpu.dtb.wrMisses                            43                       # TLB misses on write requests
system.cpu.dtb.walker.power_state.pwrStateResidencyTicks::UNDEFINED   1468149500                       # Cumulative time (in ticks) in various power states
system.cpu.dtb_walker_cache.blocked_cycles::no_mshrs            0                       # number of cycles access was blocked
system.cpu.dtb_walker_cache.blocked_cycles::no_targets            0                       # number of cycles access was blocked
system.cpu.dtb_walker_cache.blocked::no_mshrs            0                       # number of cycles access was blocked
system.cpu.dtb_walker_cache.blocked::no_targets            0                       # number of cycles access was blocked
system.cpu.dtb_walker_cache.avg_blocked_cycles::no_mshrs          nan                       # average number of cycles each access was blocked
system.cpu.dtb_walker_cache.avg_blocked_cycles::no_targets          nan                       # average number of cycles each access was blocked
system.cpu.dtb_walker_cache.replacements            0                       # number of replacements
system.cpu.dtb_walker_cache.power_state.pwrStateResidencyTicks::UNDEFINED   1468149500                       # Cumulative time (in ticks) in various power states
system.cpu.dtb_walker_cache.tags.tagsinuse            0                       # Cycle average of tags in use
system.cpu.dtb_walker_cache.tags.total_refs            0                       # Total number of references to valid blocks.
system.cpu.dtb_walker_cache.tags.sampled_refs            0                       # Sample count of references to valid blocks.
system.cpu.dtb_walker_cache.tags.avg_refs          nan                       # Average number of references to valid blocks.
system.cpu.dtb_walker_cache.tags.warmup_cycle            0                       # Cycle when the warmup percentage was hit.
system.cpu.dtb_walker_cache.tags.tag_accesses            0                       # Number of tag accesses
system.cpu.dtb_walker_cache.tags.data_accesses            0                       # Number of data accesses
system.cpu.dtb_walker_cache.tags.power_state.pwrStateResidencyTicks::UNDEFINED   1468149500                       # Cumulative time (in ticks) in various power states
system.cpu.icache.demand_hits::.cpu.inst       640353                       # number of demand (read+write) hits
system.cpu.icache.demand_hits::total           640353                       # number of demand (read+write) hits
system.cpu.icache.overall_hits::.cpu.inst       640353                       # number of overall hits
system.cpu.icache.overall_hits::total          640353                       # number of overall hits
system.cpu.icache.demand_misses::.cpu.inst         2643                       # number of demand (read+write) misses
system.cpu.icache.demand_misses::total           2643                       # number of demand (read+write) misses
system.cpu.icache.overall_misses::.cpu.inst         2643                       # number of overall misses
system.cpu.icache.overall_misses::total          2643                       # number of overall misses
system.cpu.icache.demand_miss_latency::.cpu.inst    204296000                       # number of demand (read+write) miss cycles
system.cpu.icache.demand_miss_latency::total    204296000                       # number of demand (read+write) miss cycles
system.cpu.icache.overall_miss_latency::.cpu.inst    204296000                       # number of overall miss cycles
system.cpu.icache.overall_miss_latency::total    204296000                       # number of overall miss cycles
system.cpu.icache.demand_accesses::.cpu.inst       642996                       # number of demand (read+write) accesses
system.cpu.icache.demand_accesses::total       642996                       # number of demand (read+write) accesses
system.cpu.icache.overall_accesses::.cpu.inst       642996                       # number of overall (read+write) accesses
system.cpu.icache.overall_accesses::total       642996                       # number of overall (read+write) accesses
system.cpu.icache.demand_miss_rate::.cpu.inst     0.004110                       # miss rate for demand accesses
system.cpu.icache.demand_miss_rate::total     0.004110                       # miss rate for demand accesses
system.cpu.icache.overall_miss_rate::.cpu.inst     0.004110                       # miss rate for overall accesses
system.cpu.icache.overall_miss_rate::total     0.004110                       # miss rate for overall accesses
system.cpu.icache.demand_avg_miss_latency::.cpu.inst 77297.010972                       # average overall miss latency
system.cpu.icache.demand_avg_miss_latency::total 77297.010972                       # average overall miss latency
system.cpu.icache.overall_avg_miss_latency::.cpu.inst 77297.010972                       # average overall miss latency
system.cpu.icache.overall_avg_miss_latency::total 77297.010972                       # average overall miss latency
system.cpu.icache.blocked_cycles::no_mshrs            0                       # number of cycles access was blocked
system.cpu.icache.blocked_cycles::no_targets            0                       # number of cycles access was blocked
system.cpu.icache.blocked::no_mshrs                 0                       # number of cycles access was blocked
system.cpu.icache.blocked::no_targets               0                       # number of cycles access was blocked
system.cpu.icache.avg_blocked_cycles::no_mshrs          nan                       # average number of cycles each access was blocked
system.cpu.icache.avg_blocked_cycles::no_targets          nan                       # average number of cycles each access was blocked
system.cpu.icache.demand_mshr_misses::.cpu.inst         2643                       # number of demand (read+write) MSHR misses
system.cpu.icache.demand_mshr_misses::total         2643                       # number of demand (read+write) MSHR misses
system.cpu.icache.overall_mshr_misses::.cpu.inst         2643                       # number of overall MSHR misses
system.cpu.icache.overall_mshr_misses::total         2643                       # number of overall MSHR misses
system.cpu.icache.demand_mshr_miss_latency::.cpu.inst    201653000                       # number of demand (read+write) MSHR miss cycles
system.cpu.icache.demand_mshr_miss_latency::total    201653000                       # number of demand (read+write) MSHR miss cycles
system.cpu.icache.overall_mshr_miss_latency::.cpu.inst    201653000                       # number of overall MSHR miss cycles
system.cpu.icache.overall_mshr_miss_latency::total    201653000                       # number of overall MSHR miss cycles
system.cpu.icache.demand_mshr_miss_rate::.cpu.inst     0.004110                       # mshr miss rate for demand accesses
system.cpu.icache.demand_mshr_miss_rate::total     0.004110                       # mshr miss rate for demand accesses
system.cpu.icache.overall_mshr_miss_rate::.cpu.inst     0.004110                       # mshr miss rate for overall accesses
system.cpu.icache.overall_mshr_miss_rate::total     0.004110                       # mshr miss rate for overall accesses
system.cpu.icache.demand_avg_mshr_miss_latency::.cpu.inst 76297.010972                       # average overall mshr miss latency
system.cpu.icache.demand_avg_mshr_miss_latency::total 76297.010972                       # average overall mshr miss latency
system.cpu.icache.overall_avg_mshr_miss_latency::.cpu.inst 76297.010972                       # average overall mshr miss latency
system.cpu.icache.overall_avg_mshr_miss_latency::total 76297.010972                       # average overall mshr miss latency
system.cpu.icache.replacements                      0                       # number of replacements
system.cpu.icache.ReadReq_hits::.cpu.inst       640353                       # number of ReadReq hits
system.cpu.icache.ReadReq_hits::total          640353                       # number of ReadReq hits
system.cpu.icache.ReadReq_misses::.cpu.inst         2643                       # number of ReadReq misses
system.cpu.icache.ReadReq_misses::total          2643                       # number of ReadReq misses
system.cpu.icache.ReadReq_miss_latency::.cpu.inst    204296000                       # number of ReadReq miss cycles
system.cpu.icache.ReadReq_miss_latency::total    204296000                       # number of ReadReq miss cycles
system.cpu.icache.ReadReq_accesses::.cpu.inst       642996                       # number of ReadReq accesses(hits+misses)
system.cpu.icache.ReadReq_accesses::total       642996                       # number of ReadReq accesses(hits+misses)
system.cpu.icache.ReadReq_miss_rate::.cpu.inst     0.004110                       # miss rate for ReadReq accesses
system.cpu.icache.ReadReq_miss_rate::total     0.004110                       # miss rate for ReadReq accesses
system.cpu.icache.ReadReq_avg_miss_latency::.cpu.inst 77297.010972                       # average ReadReq miss latency
system.cpu.icache.ReadReq_avg_miss_latency::total 77297.010972                       # average ReadReq miss latency
system.cpu.icache.ReadReq_mshr_misses::.cpu.inst         2643                       # number of ReadReq MSHR misses
system.cpu.icache.ReadReq_mshr_misses::total         2643                       # number of ReadReq MSHR misses
system.cpu.icache.ReadReq_mshr_miss_latency::.cpu.inst    201653000                       # number of ReadReq MSHR miss cycles
system.cpu.icache.ReadReq_mshr_miss_latency::total    201653000                       # number of ReadReq MSHR miss cycles
system.cpu.icache.ReadReq_mshr_miss_rate::.cpu.inst     0.004110                       # mshr miss rate for ReadReq accesses
system.cpu.icache.ReadReq_mshr_miss_rate::total     0.004110                       # mshr miss rate for ReadReq accesses
system.cpu.icache.ReadReq_avg_mshr_miss_latency::.cpu.inst 76297.010972                       # average ReadReq mshr miss latency
system.cpu.icache.ReadReq_avg_mshr_miss_latency::total 76297.010972                       # average ReadReq mshr miss latency
system.cpu.icache.power_state.pwrStateResidencyTicks::UNDEFINED   1468149500                       # Cumulative time (in ticks) in various power states
system.cpu.icache.tags.tagsinuse          1589.031505                       # Cycle average of tags in use
system.cpu.icache.tags.total_refs              642996                       # Total number of references to valid blocks.
system.cpu.icache.tags.sampled_refs              2643                       # Sample count of references to valid blocks.
system.cpu.icache.tags.avg_refs            243.282633                       # Average number of references to valid blocks.
system.cpu.icache.tags.warmup_cycle             87500                       # Cycle when the warmup percentage was hit.
system.cpu.icache.tags.occ_blocks::.cpu.inst  1589.031505                       # Average occupied blocks per requestor
system.cpu.icache.tags.occ_percent::.cpu.inst     0.003031                       # Average percentage of cache occupancy
system.cpu.icache.tags.occ_percent::total     0.003031                       # Average percentage of cache occupancy
system.cpu.icache.tags.occ_task_id_blocks::1024         2643                       # Occupied blocks per task id
system.cpu.icache.tags.age_task_id_blocks_1024::0           85                       # Occupied blocks per task id
system.cpu.icache.tags.age_task_id_blocks_1024::1          230                       # Occupied blocks per task id
system.cpu.icache.tags.age_task_id_blocks_1024::2         1179                       # Occupied blocks per task id
system.cpu.icache.tags.age_task_id_blocks_1024::3         1149                       # Occupied blocks per task id
system.cpu.icache.tags.occ_task_id_percent::1024     0.005041                       # Percentage of cache occupancy per task id
system.cpu.icache.tags.tag_accesses           1288635                       # Number of tag accesses
system.cpu.icache.tags.data_accesses          1288635                       # Number of data accesses
system.cpu.icache.tags.power_state.pwrStateResidencyTicks::UNDEFINED   1468149500                       # Cumulative time (in ticks) in various power states
system.cpu.interrupts.clk_domain.clock           8000                       # Clock period in ticks
system.cpu.itb.rdAccesses                           0                       # TLB accesses on read requests
system.cpu.itb.wrAccesses                      643074                       # TLB accesses on write requests
system.cpu.itb.rdMisses                             0                       # TLB misses on read requests
system.cpu.itb.wrMisses                           262                       # TLB misses on write requests
system.cpu.itb.walker.power_state.pwrStateResidencyTicks::UNDEFINED   1468149500                       # Cumulative time (in ticks) in various power states
system.cpu.itb_walker_cache.blocked_cycles::no_mshrs            0                       # number of cycles access was blocked
system.cpu.itb_walker_cache.blocked_cycles::no_targets            0                       # number of cycles access was blocked
system.cpu.itb_walker_cache.blocked::no_mshrs            0                       # number of cycles access was blocked
system.cpu.itb_walker_cache.blocked::no_targets            0                       # number of cycles access was blocked
system.cpu.itb_walker_cache.avg_blocked_cycles::no_mshrs          nan                       # average number of cycles each access was blocked
system.cpu.itb_walker_cache.avg_blocked_cycles::no_targets          nan                       # average number of cycles each access was blocked
system.cpu.itb_walker_cache.replacements            0                       # number of replacements
system.cpu.itb_walker_cache.power_state.pwrStateResidencyTicks::UNDEFINED   1468149500                       # Cumulative time (in ticks) in various power states
system.cpu.itb_walker_cache.tags.tagsinuse            0                       # Cycle average of tags in use
system.cpu.itb_walker_cache.tags.total_refs            0                       # Total number of references to valid blocks.
system.cpu.itb_walker_cache.tags.sampled_refs            0                       # Sample count of references to valid blocks.
system.cpu.itb_walker_cache.tags.avg_refs          nan                       # Average number of references to valid blocks.
system.cpu.itb_walker_cache.tags.warmup_cycle            0                       # Cycle when the warmup percentage was hit.
system.cpu.itb_walker_cache.tags.tag_accesses            0                       # Number of tag accesses
system.cpu.itb_walker_cache.tags.data_accesses            0                       # Number of data accesses
system.cpu.itb_walker_cache.tags.power_state.pwrStateResidencyTicks::UNDEFINED   1468149500                       # Cumulative time (in ticks) in various power states
system.cpu.power_state.pwrStateResidencyTicks::ON   1468149500                       # Cumulative time (in ticks) in various power states
system.cpu.thread_0.numInsts                        0                       # Number of Instructions committed
system.cpu.thread_0.numOps                          0                       # Number of Ops committed
system.cpu.thread_0.numMemRefs                      0                       # Number of Memory References
system.cpu_clk_domain.clock                       500                       # Clock period in ticks
system.cpu_voltage_domain.voltage                   1                       # Voltage in Volts
system.l2.demand_hits::.cpu.data                  102                       # number of demand (read+write) hits
system.l2.demand_hits::total                      102                       # number of demand (read+write) hits
system.l2.overall_hits::.cpu.data                 102                       # number of overall hits
system.l2.overall_hits::total                     102                       # number of overall hits
system.l2.demand_misses::.cpu.inst               2643                       # number of demand (read+write) misses
system.l2.demand_misses::.cpu.data               5293                       # number of demand (read+write) misses
system.l2.demand_misses::total                   7936                       # number of demand (read+write) misses
system.l2.overall_misses::.cpu.inst              2643                       # number of overall misses
system.l2.overall_misses::.cpu.data              5293                       # number of overall misses
system.l2.overall_misses::total                  7936                       # number of overall misses
system.l2.demand_miss_latency::.cpu.inst    197688500                       # number of demand (read+write) miss cycles
system.l2.demand_miss_latency::.cpu.data    398694000                       # number of demand (read+write) miss cycles
system.l2.demand_miss_latency::total        596382500                       # number of demand (read+write) miss cycles
system.l2.overall_miss_latency::.cpu.inst    197688500                       # number of overall miss cycles
system.l2.overall_miss_latency::.cpu.data    398694000                       # number of overall miss cycles
system.l2.overall_miss_latency::total       596382500                       # number of overall miss cycles
system.l2.demand_accesses::.cpu.inst             2643                       # number of demand (read+write) accesses
system.l2.demand_accesses::.cpu.data             5395                       # number of demand (read+write) accesses
system.l2.demand_accesses::total                 8038                       # number of demand (read+write) accesses
system.l2.overall_accesses::.cpu.inst            2643                       # number of overall (read+write) accesses
system.l2.overall_accesses::.cpu.data            5395                       # number of overall (read+write) accesses
system.l2.overall_accesses::total                8038                       # number of overall (read+write) accesses
system.l2.demand_miss_rate::.cpu.inst               1                       # miss rate for demand accesses
system.l2.demand_miss_rate::.cpu.data        0.981094                       # miss rate for demand accesses
system.l2.demand_miss_rate::total            0.987310                       # miss rate for demand accesses
system.l2.overall_miss_rate::.cpu.inst              1                       # miss rate for overall accesses
system.l2.overall_miss_rate::.cpu.data       0.981094                       # miss rate for overall accesses
system.l2.overall_miss_rate::total           0.987310                       # miss rate for overall accesses
system.l2.demand_avg_miss_latency::.cpu.inst 74797.010972                       # average overall miss latency
system.l2.demand_avg_miss_latency::.cpu.data 75324.768562                       # average overall miss latency
system.l2.demand_avg_miss_latency::total 75149.004536                       # average overall miss latency
system.l2.overall_avg_miss_latency::.cpu.inst 74797.010972                       # average overall miss latency
system.l2.overall_avg_miss_latency::.cpu.data 75324.768562                       # average overall miss latency
system.l2.overall_avg_miss_latency::total 75149.004536                       # average overall miss latency
system.l2.blocked_cycles::no_mshrs                  0                       # number of cycles access was blocked
system.l2.blocked_cycles::no_targets                0                       # number of cycles access was blocked
system.l2.blocked::no_mshrs                         0                       # number of cycles access was blocked
system.l2.blocked::no_targets                       0                       # number of cycles access was blocked
system.l2.avg_blocked_cycles::no_mshrs            nan                       # average number of cycles each access was blocked
system.l2.avg_blocked_cycles::no_targets          nan                       # average number of cycles each access was blocked
system.l2.writebacks::.writebacks                 158                       # number of writebacks
system.l2.writebacks::total                       158                       # number of writebacks
system.l2.demand_mshr_misses::.cpu.inst          2643                       # number of demand (read+write) MSHR misses
system.l2.demand_mshr_misses::.cpu.data          5293                       # number of demand (read+write) MSHR misses
system.l2.demand_mshr_misses::total              7936                       # number of demand (read+write) MSHR misses
system.l2.overall_mshr_misses::.cpu.inst         2643                       # number of overall MSHR misses
system.l2.overall_mshr_misses::.cpu.data         5293                       # number of overall MSHR misses
system.l2.overall_mshr_misses::total             7936                       # number of overall MSHR misses
system.l2.demand_mshr_miss_latency::.cpu.inst    171258500                       # number of demand (read+write) MSHR miss cycles
system.l2.demand_mshr_miss_latency::.cpu.data    345764000                       # number of demand (read+write) MSHR miss cycles
system.l2.demand_mshr_miss_latency::total    517022500                       # number of demand (read+write) MSHR miss cycles
system.l2.overall_mshr_miss_latency::.cpu.inst    171258500                       # number of overall MSHR miss cycles
system.l2.overall_mshr_miss_latency::.cpu.data    345764000                       # number of overall MSHR miss cycles
system.l2.overall_mshr_miss_latency::total    517022500                       # number of overall MSHR miss cycles
system.l2.demand_mshr_miss_rate::.cpu.inst            1                       # mshr miss rate for demand accesses
system.l2.demand_mshr_miss_rate::.cpu.data     0.981094                       # mshr miss rate for demand accesses
system.l2.demand_mshr_miss_rate::total       0.987310                       # mshr miss rate for demand accesses
system.l2.overall_mshr_miss_rate::.cpu.inst            1                       # mshr miss rate for overall accesses
system.l2.overall_mshr_miss_rate::.cpu.data     0.981094                       # mshr miss rate for overall accesses
system.l2.overall_mshr_miss_rate::total      0.987310                       # mshr miss rate for overall accesses
system.l2.demand_avg_mshr_miss_latency::.cpu.inst 64797.010972                       # average overall mshr miss latency
system.l2.demand_avg_mshr_miss_latency::.cpu.data 65324.768562                       # average overall mshr miss latency
system.l2.demand_avg_mshr_miss_latency::total 65149.004536                       # average overall mshr miss latency
system.l2.overall_avg_mshr_miss_latency::.cpu.inst 64797.010972                       # average overall mshr miss latency
system.l2.overall_avg_mshr_miss_latency::.cpu.data 65324.768562                       # average overall mshr miss latency
system.l2.overall_avg_mshr_miss_latency::total 65149.004536                       # average overall mshr miss latency
system.l2.replacements                           4395                       # number of replacements
system.l2.WritebackDirty_hits::.writebacks          557                       # number of WritebackDirty hits
system.l2.WritebackDirty_hits::total              557                       # number of WritebackDirty hits
system.l2.WritebackDirty_accesses::.writebacks          557                       # number of WritebackDirty accesses(hits+misses)
system.l2.WritebackDirty_accesses::total          557                       # number of WritebackDirty accesses(hits+misses)
system.l2.CleanEvict_mshr_misses::.writebacks          864                       # number of CleanEvict MSHR misses
system.l2.CleanEvict_mshr_misses::total           864                       # number of CleanEvict MSHR misses
system.l2.CleanEvict_mshr_miss_rate::.writebacks          inf                       # mshr miss rate for CleanEvict accesses
system.l2.CleanEvict_mshr_miss_rate::total          inf                       # mshr miss rate for CleanEvict accesses
system.l2.ReadExReq_hits::.cpu.data                12                       # number of ReadExReq hits
system.l2.ReadExReq_hits::total                    12                       # number of ReadExReq hits
system.l2.ReadExReq_misses::.cpu.data            1126                       # number of ReadExReq misses
system.l2.ReadExReq_misses::total                1126                       # number of ReadExReq misses
system.l2.ReadExReq_miss_latency::.cpu.data     84099500                       # number of ReadExReq miss cycles
system.l2.ReadExReq_miss_latency::total      84099500                       # number of ReadExReq miss cycles
system.l2.ReadExReq_accesses::.cpu.data          1138                       # number of ReadExReq accesses(hits+misses)
system.l2.ReadExReq_accesses::total              1138                       # number of ReadExReq accesses(hits+misses)
system.l2.ReadExReq_miss_rate::.cpu.data     0.989455                       # miss rate for ReadExReq accesses
system.l2.ReadExReq_miss_rate::total         0.989455                       # miss rate for ReadExReq accesses
system.l2.ReadExReq_avg_miss_latency::.cpu.data 74688.721137                       # average ReadExReq miss latency
system.l2.ReadExReq_avg_miss_latency::total 74688.721137                       # average ReadExReq miss latency
system.l2.ReadExReq_mshr_misses::.cpu.data         1126                       # number of ReadExReq MSHR misses
system.l2.ReadExReq_mshr_misses::total           1126                       # number of ReadExReq MSHR misses
system.l2.ReadExReq_mshr_miss_latency::.cpu.data     72839500                       # number of ReadExReq MSHR miss cycles
system.l2.ReadExReq_mshr_miss_latency::total     72839500                       # number of ReadExReq MSHR miss cycles
system.l2.ReadExReq_mshr_miss_rate::.cpu.data     0.989455                       # mshr miss rate for ReadExReq accesses
system.l2.ReadExReq_mshr_miss_rate::total     0.989455                       # mshr miss rate for ReadExReq accesses
system.l2.ReadExReq_avg_mshr_miss_latency::.cpu.data 64688.721137                       # average ReadExReq mshr miss latency
system.l2.ReadExReq_avg_mshr_miss_latency::total 64688.721137                       # average ReadExReq mshr miss latency
system.l2.ReadCleanReq_misses::.cpu.inst         2643                       # number of ReadCleanReq misses
system.l2.ReadCleanReq_misses::total             2643                       # number of ReadCleanReq misses
system.l2.ReadCleanReq_miss_latency::.cpu.inst    197688500                       # number of ReadCleanReq miss cycles
system.l2.ReadCleanReq_miss_latency::total    197688500                       # number of ReadCleanReq miss cycles
system.l2.ReadCleanReq_accesses::.cpu.inst         2643                       # number of ReadCleanReq accesses(hits+misses)
system.l2.ReadCleanReq_accesses::total           2643                       # number of ReadCleanReq accesses(hits+misses)
system.l2.ReadCleanReq_miss_rate::.cpu.inst            1                       # miss rate for ReadCleanReq accesses
system.l2.ReadCleanReq_miss_rate::total             1                       # miss rate for ReadCleanReq accesses
system.l2.ReadCleanReq_avg_miss_latency::.cpu.inst 74797.010972                       # average ReadCleanReq miss latency
system.l2.ReadCleanReq_avg_miss_latency::total 74797.010972                       # average ReadCleanReq miss latency
system.l2.ReadCleanReq_mshr_misses::.cpu.inst         2643                       # number of ReadCleanReq MSHR misses
system.l2.ReadCleanReq_mshr_misses::total         2643                       # number of ReadCleanReq MSHR misses
system.l2.ReadCleanReq_mshr_miss_latency::.cpu.inst    171258500                       # number of ReadCleanReq MSHR miss cycles
system.l2.ReadCleanReq_mshr_miss_latency::total    171258500                       # number of ReadCleanReq MSHR miss cycles
system.l2.ReadCleanReq_mshr_miss_rate::.cpu.inst            1                       # mshr miss rate for ReadCleanReq accesses
system.l2.ReadCleanReq_mshr_miss_rate::total            1                       # mshr miss rate for ReadCleanReq accesses
system.l2.ReadCleanReq_avg_mshr_miss_latency::.cpu.inst 64797.010972                       # average ReadCleanReq mshr miss latency
system.l2.ReadCleanReq_avg_mshr_miss_latency::total 64797.010972                       # average ReadCleanReq mshr miss latency
system.l2.ReadSharedReq_hits::.cpu.data            90                       # number of ReadSharedReq hits
system.l2.ReadSharedReq_hits::total                90                       # number of ReadSharedReq hits
system.l2.ReadSharedReq_misses::.cpu.data         4167                       # number of ReadSharedReq misses
system.l2.ReadSharedReq_misses::total            4167                       # number of ReadSharedReq misses
system.l2.ReadSharedReq_miss_latency::.cpu.data    314594500                       # number of ReadSharedReq miss cycles
system.l2.ReadSharedReq_miss_latency::total    314594500                       # number of ReadSharedReq miss cycles
system.l2.ReadSharedReq_accesses::.cpu.data         4257                       # number of ReadSharedReq accesses(hits+misses)
system.l2.ReadSharedReq_accesses::total          4257                       # number of ReadSharedReq accesses(hits+misses)
system.l2.ReadSharedReq_miss_rate::.cpu.data     0.978858                       # miss rate for ReadSharedReq accesses
system.l2.ReadSharedReq_miss_rate::total     0.978858                       # miss rate for ReadSharedReq accesses
system.l2.ReadSharedReq_avg_miss_latency::.cpu.data 75496.640269                       # average ReadSharedReq miss latency
system.l2.ReadSharedReq_avg_miss_latency::total 75496.640269                       # average ReadSharedReq miss latency
system.l2.ReadSharedReq_mshr_misses::.cpu.data         4167                       # number of ReadSharedReq MSHR misses
system.l2.ReadSharedReq_mshr_misses::total         4167                       # number of ReadSharedReq MSHR misses
system.l2.ReadSharedReq_mshr_miss_latency::.cpu.data    272924500                       # number of ReadSharedReq MSHR miss cycles
system.l2.ReadSharedReq_mshr_miss_latency::total    272924500                       # number of ReadSharedReq MSHR miss cycles
system.l2.ReadSharedReq_mshr_miss_rate::.cpu.data     0.978858                       # mshr miss rate for ReadSharedReq accesses
system.l2.ReadSharedReq_mshr_miss_rate::total     0.978858                       # mshr miss rate for ReadSharedReq accesses
system.l2.ReadSharedReq_avg_mshr_miss_latency::.cpu.data 65496.640269                       # average ReadSharedReq mshr miss latency
system.l2.ReadSharedReq_avg_mshr_miss_latency::total 65496.640269                       # average ReadSharedReq mshr miss latency
system.l2.power_state.pwrStateResidencyTicks::UNDEFINED   1468149500                       # Cumulative time (in ticks) in various power states
system.l2.tags.tagsinuse                  3276.329208                       # Cycle average of tags in use
system.l2.tags.total_refs                        8685                       # Total number of references to valid blocks.
system.l2.tags.sampled_refs                      8435                       # Sample count of references to valid blocks.
system.l2.tags.avg_refs                      1.029638                       # Average number of references to valid blocks.
system.l2.tags.warmup_cycle                     77000                       # Cycle when the warmup percentage was hit.
system.l2.tags.occ_blocks::.writebacks     207.319291                       # Average occupied blocks per requestor
system.l2.tags.occ_blocks::.cpu.inst       843.766756                       # Average occupied blocks per requestor
system.l2.tags.occ_blocks::.cpu.data      2225.243161                       # Average occupied blocks per requestor
system.l2.tags.occ_percent::.writebacks      0.050615                       # Average percentage of cache occupancy
system.l2.tags.occ_percent::.cpu.inst        0.205998                       # Average percentage of cache occupancy
system.l2.tags.occ_percent::.cpu.data        0.543272                       # Average percentage of cache occupancy
system.l2.tags.occ_percent::total            0.799885                       # Average percentage of cache occupancy
system.l2.tags.occ_task_id_blocks::1024          4040                       # Occupied blocks per task id
system.l2.tags.age_task_id_blocks_1024::0          104                       # Occupied blocks per task id
system.l2.tags.age_task_id_blocks_1024::1          253                       # Occupied blocks per task id
system.l2.tags.age_task_id_blocks_1024::2         2810                       # Occupied blocks per task id
system.l2.tags.age_task_id_blocks_1024::3          873                       # Occupied blocks per task id
system.l2.tags.occ_task_id_percent::1024     0.986328                       # Percentage of cache occupancy per task id
system.l2.tags.tag_accesses                     27533                       # Number of tag accesses
system.l2.tags.data_accesses                    27533                       # Number of data accesses
system.l2.tags.power_state.pwrStateResidencyTicks::UNDEFINED   1468149500                       # Cumulative time (in ticks) in various power states
system.mem_ctrls.avgPriority_.writebacks::samples       128.00                       # Average QoS priority value for accepted requests
system.mem_ctrls.avgPriority_.cpu.inst::samples      2643.00                       # Average QoS priority value for accepted requests
system.mem_ctrls.avgPriority_.cpu.data::samples      5289.00                       # Average QoS priority value for accepted requests
system.mem_ctrls.priorityMinLatency      0.000000018750                       # per QoS priority minimum request to response latency (s)
system.mem_ctrls.priorityMaxLatency      0.001209088500                       # per QoS priority maximum request to response latency (s)
system.mem_ctrls.numReadWriteTurnArounds            6                       # Number of turnarounds from READ to WRITE
system.mem_ctrls.numWriteReadTurnArounds            6                       # Number of turnarounds from WRITE to READ
system.mem_ctrls.numStayReadState               16393                       # Number of times bus staying in READ state
system.mem_ctrls.numStayWriteState                 94                       # Number of times bus staying in WRITE state
system.mem_ctrls.readReqs                        7936                       # Number of read requests accepted
system.mem_ctrls.writeReqs                        158                       # Number of write requests accepted
system.mem_ctrls.readBursts                      7936                       # Number of controller read bursts, including those serviced by the write queue
system.mem_ctrls.writeBursts                      158                       # Number of controller write bursts, including those merged in the write queue
system.mem_ctrls.servicedByWrQ                      4                       # Number of controller read bursts serviced by the write queue
system.mem_ctrls.mergedWrBursts                    30                       # Number of controller write bursts merged with an existing one
system.mem_ctrls.neitherReadNorWriteReqs            0                       # Number of requests that are neither read nor write
system.mem_ctrls.avgRdQLen                       1.00                       # Average read queue length when enqueuing
system.mem_ctrls.avgWrQLen                      16.20                       # Average write queue length when enqueuing
system.mem_ctrls.numRdRetry                         0                       # Number of times read queue was full causing retry
system.mem_ctrls.numWrRetry                         0                       # Number of times write queue was full causing retry
system.mem_ctrls.readPktSize::0                     0                       # Read request sizes (log2)
system.mem_ctrls.readPktSize::1                     0                       # Read request sizes (log2)
system.mem_ctrls.readPktSize::2                     0                       # Read request sizes (log2)
system.mem_ctrls.readPktSize::3                     0                       # Read request sizes (log2)
system.mem_ctrls.readPktSize::4                     0                       # Read request sizes (log2)
system.mem_ctrls.readPktSize::5                  7936                       # Read request sizes (log2)
system.mem_ctrls.writePktSize::0                    0                       # Write request sizes (log2)
system.mem_ctrls.writePktSize::1                    0                       # Write request sizes (log2)
system.mem_ctrls.writePktSize::2                    0                       # Write request sizes (log2)
system.mem_ctrls.writePktSize::3                    0                       # Write request sizes (log2)
system.mem_ctrls.writePktSize::4                    0                       # Write request sizes (log2)
system.mem_ctrls.writePktSize::5                  158                       # Write request sizes (log2)
system.mem_ctrls.rdQLenPdf::0                    7930                       # What read queue length does an incoming req see
system.mem_ctrls.rdQLenPdf::1                       2                       # What read queue length does an incoming req see
system.mem_ctrls.rdQLenPdf::2                       0                       # What read queue length does an incoming req see
system.mem_ctrls.rdQLenPdf::3                       0                       # What read queue length does an incoming req see
system.mem_ctrls.rdQLenPdf::4                       0                       # What read queue length does an incoming req see
system.mem_ctrls.rdQLenPdf::5                       0                       # What read queue length does an incoming req see
system.mem_ctrls.rdQLenPdf::6                       0                       # What read queue length does an incoming req see
system.mem_ctrls.rdQLenPdf::7                       0                       # What read queue length does an incoming req see
system.mem_ctrls.rdQLenPdf::8                       0                       # What read queue length does an incoming req see
system.mem_ctrls.rdQLenPdf::9                       0                       # What read queue length does an incoming req see
system.mem_ctrls.rdQLenPdf::10                      0                       # What read queue length does an incoming req see
system.mem_ctrls.rdQLenPdf::11                      0                       # What read queue length does an incoming req see
system.mem_ctrls.rdQLenPdf::12                      0                       # What read queue length does an incoming req see
system.mem_ctrls.rdQLenPdf::13                      0                       # What read queue length does an incoming req see
system.mem_ctrls.rdQLenPdf::14                      0                       # What read queue length does an incoming req see
system.mem_ctrls.rdQLenPdf::15                      0                       # What read queue length does an incoming req see
system.mem_ctrls.rdQLenPdf::16                      0                       # What read queue length does an incoming req see
system.mem_ctrls.rdQLenPdf::17                      0                       # What read queue length does an incoming req see
system.mem_ctrls.rdQLenPdf::18                      0                       # What read queue length does an incoming req see
system.mem_ctrls.rdQLenPdf::19                      0                       # What read queue length does an incoming req see
system.mem_ctrls.rdQLenPdf::20                      0                       # What read queue length does an incoming req see
system.mem_ctrls.rdQLenPdf::21                      0                       # What read queue length does an incoming req see
system.mem_ctrls.rdQLenPdf::22                      0                       # What read queue length does an incoming req see
system.mem_ctrls.rdQLenPdf::23                      0                       # What read queue length does an incoming req see
system.mem_ctrls.rdQLenPdf::24                      0                       # What read queue length does an incoming req see
system.mem_ctrls.rdQLenPdf::25                      0                       # What read queue length does an incoming req see
system.mem_ctrls.rdQLenPdf::26                      0                       # What read queue length does an incoming req see
system.mem_ctrls.rdQLenPdf::27                      0                       # What read queue length does an incoming req see
system.mem_ctrls.rdQLenPdf::28                      0                       # What read queue length does an incoming req see
system.mem_ctrls.rdQLenPdf::29                      0                       # What read queue length does an incoming req see
system.mem_ctrls.rdQLenPdf::30                      0                       # What read queue length does an incoming req see
system.mem_ctrls.rdQLenPdf::31                      0                       # What read queue length does an incoming req see
system.mem_ctrls.wrQLenPdf::0                       1                       # What write queue length does an incoming req see
system.mem_ctrls.wrQLenPdf::1                       1                       # What write queue length does an incoming req see
system.mem_ctrls.wrQLenPdf::2                       1                       # What write queue length does an incoming req see
system.mem_ctrls.wrQLenPdf::3                       1                       # What write queue length does an incoming req see
system.mem_ctrls.wrQLenPdf::4                       1                       # What write queue length does an incoming req see
system.mem_ctrls.wrQLenPdf::5                       1                       # What write queue length does an incoming req see
system.mem_ctrls.wrQLenPdf::6                       1                       # What write queue length does an incoming req see
system.mem_ctrls.wrQLenPdf::7                       1                       # What write queue length does an incoming req see
system.mem_ctrls.wrQLenPdf::8                       1                       # What write queue length does an incoming req see
system.mem_ctrls.wrQLenPdf::9                       1                       # What write queue length does an incoming req see
system.mem_ctrls.wrQLenPdf::10                      1                       # What write queue length does an incoming req see
system.mem_ctrls.wrQLenPdf::11                      1                       # What write queue length does an incoming req see
system.mem_ctrls.wrQLenPdf::12                      1                       # What write queue length does an incoming req see
system.mem_ctrls.wrQLenPdf::13                      1                       # What write queue length does an incoming req see
system.mem_ctrls.wrQLenPdf::14                      1                       # What write queue length does an incoming req see
system.mem_ctrls.wrQLenPdf::15                      3                       # What write queue length does an incoming req see
system.mem_ctrls.wrQLenPdf::16                      3                       # What write queue length does an incoming req see
system.mem_ctrls.wrQLenPdf::17                      7                       # What write queue length does an incoming req see
system.mem_ctrls.wrQLenPdf::18                      7                       # What write queue length does an incoming req see
system.mem_ctrls.wrQLenPdf::19                      7                       # What write queue length does an incoming req see
system.mem_ctrls.wrQLenPdf::20                      7                       # What write queue length does an incoming req see
system.mem_ctrls.wrQLenPdf::21                      7                       # What write queue length does an incoming req see
system.mem_ctrls.wrQLenPdf::22                      7                       # What write queue length does an incoming req see
system.mem_ctrls.wrQLenPdf::23                      7                       # What write queue length does an incoming req see
system.mem_ctrls.wrQLenPdf::24                      7                       # What write queue length does an incoming req see
system.mem_ctrls.wrQLenPdf::25                      7                       # What write queue length does an incoming req see
system.mem_ctrls.wrQLenPdf::26                      7                       # What write queue length does an incoming req see
system.mem_ctrls.wrQLenPdf::27                      7                       # What write queue length does an incoming req see
system.mem_ctrls.wrQLenPdf::28                      6                       # What write queue length does an incoming req see
system.mem_ctrls.wrQLenPdf::29                      6                       # What write queue length does an incoming req see
system.mem_ctrls.wrQLenPdf::30                      6                       # What write queue length does an incoming req see
system.mem_ctrls.wrQLenPdf::31                      6                       # What write queue length does an incoming req see
system.mem_ctrls.wrQLenPdf::32                      6                       # What write queue length does an incoming req see
system.mem_ctrls.wrQLenPdf::33                      0                       # What write queue length does an incoming req see
system.mem_ctrls.wrQLenPdf::34                      0                       # What write queue length does an incoming req see
system.mem_ctrls.wrQLenPdf::35                      0                       # What write queue length does an incoming req see
system.mem_ctrls.wrQLenPdf::36                      0                       # What write queue length does an incoming req see
system.mem_ctrls.wrQLenPdf::37                      0                       # What write queue length does an incoming req see
system.mem_ctrls.wrQLenPdf::38                      0                       # What write queue length does an incoming req see
system.mem_ctrls.wrQLenPdf::39                      0                       # What write queue length does an incoming req see
system.mem_ctrls.wrQLenPdf::40                      0                       # What write queue length does an incoming req see
system.mem_ctrls.wrQLenPdf::41                      0                       # What write queue length does an incoming req see
system.mem_ctrls.wrQLenPdf::42                      0                       # What write queue length does an incoming req see
system.mem_ctrls.wrQLenPdf::43                      0                       # What write queue length does an incoming req see
system.mem_ctrls.wrQLenPdf::44                      0                       # What write queue length does an incoming req see
system.mem_ctrls.wrQLenPdf::45                      0                       # What write queue length does an incoming req see
system.mem_ctrls.wrQLenPdf::46                      0                       # What write queue length does an incoming req see
system.mem_ctrls.wrQLenPdf::47                      0                       # What write queue length does an incoming req see
system.mem_ctrls.wrQLenPdf::48                      0                       # What write queue length does an incoming req see
system.mem_ctrls.wrQLenPdf::49                      0                       # What write queue length does an incoming req see
system.mem_ctrls.wrQLenPdf::50                      0                       # What write queue length does an incoming req see
system.mem_ctrls.wrQLenPdf::51                      0                       # What write queue length does an incoming req see
system.mem_ctrls.wrQLenPdf::52                      0                       # What write queue length does an incoming req see
system.mem_ctrls.wrQLenPdf::53                      0                       # What write queue length does an incoming req see
system.mem_ctrls.wrQLenPdf::54                      0                       # What write queue length does an incoming req see
system.mem_ctrls.wrQLenPdf::55                      0                       # What write queue length does an incoming req see
system.mem_ctrls.wrQLenPdf::56                      0                       # What write queue length does an incoming req see
system.mem_ctrls.wrQLenPdf::57                      0                       # What write queue length does an incoming req see
system.mem_ctrls.wrQLenPdf::58                      0                       # What write queue length does an incoming req see
system.mem_ctrls.wrQLenPdf::59                      0                       # What write queue length does an incoming req see
system.mem_ctrls.wrQLenPdf::60                      0                       # What write queue length does an incoming req see
system.mem_ctrls.wrQLenPdf::61                      0                       # What write queue length does an incoming req see
system.mem_ctrls.wrQLenPdf::62                      0                       # What write queue length does an incoming req see
system.mem_ctrls.wrQLenPdf::63                      0                       # What write queue length does an incoming req see
system.mem_ctrls.rdPerTurnAround::samples            6                       # Reads before turning the bus around for writes
system.mem_ctrls.rdPerTurnAround::mean    1304.500000                       # Reads before turning the bus around for writes
system.mem_ctrls.rdPerTurnAround::gmean    453.855399                       # Reads before turning the bus around for writes
system.mem_ctrls.rdPerTurnAround::stdev   2465.479000                       # Reads before turning the bus around for writes
system.mem_ctrls.rdPerTurnAround::0-255             3     50.00%     50.00% # Reads before turning the bus around for writes
system.mem_ctrls.rdPerTurnAround::256-511            1     16.67%     66.67% # Reads before turning the bus around for writes
system.mem_ctrls.rdPerTurnAround::512-767            1     16.67%     83.33% # Reads before turning the bus around for writes
system.mem_ctrls.rdPerTurnAround::6144-6399            1     16.67%    100.00% # Reads before turning the bus around for writes
system.mem_ctrls.rdPerTurnAround::total             6                       # Reads before turning the bus around for writes
system.mem_ctrls.wrPerTurnAround::samples            6                       # Writes before turning the bus around for reads
system.mem_ctrls.wrPerTurnAround::mean      16.666667                       # Writes before turning the bus around for reads
system.mem_ctrls.wrPerTurnAround::gmean     16.640671                       # Writes before turning the bus around for reads
system.mem_ctrls.wrPerTurnAround::stdev      1.032796                       # Writes before turning the bus around for reads
system.mem_ctrls.wrPerTurnAround::16                4     66.67%     66.67% # Writes before turning the bus around for reads
system.mem_ctrls.wrPerTurnAround::18                2     33.33%    100.00% # Writes before turning the bus around for reads
system.mem_ctrls.wrPerTurnAround::total             6                       # Writes before turning the bus around for reads
system.mem_ctrls.bytesReadWrQ                     256                       # Total number of bytes read from write queue
system.mem_ctrls.bytesReadSys                  253952                       # Total read bytes from the system interface side
system.mem_ctrls.bytesWrittenSys                 5056                       # Total written bytes from the system interface side
system.mem_ctrls.avgRdBWSys                    172.97                       # Average system read bandwidth in MiByte/s
system.mem_ctrls.avgWrBWSys                      3.44                       # Average system write bandwidth in MiByte/s
system.mem_ctrls.totGap                    1468075500                       # Total gap between requests
system.mem_ctrls.avgGap                     181378.24                       # Average gap between requests
system.mem_ctrls.requestorReadBytes::.cpu.inst        84576                       # Per-requestor bytes read from memory
system.mem_ctrls.requestorReadBytes::.cpu.data       169248                       # Per-requestor bytes read from memory
system.mem_ctrls.requestorWriteBytes::.writebacks         3200                       # Per-requestor bytes write to memory
system.mem_ctrls.requestorReadRate::.cpu.inst 57607212.344519414008                       # Per-requestor bytes read from memory rate (Bytes/sec)
system.mem_ctrls.requestorReadRate::.cpu.data 115279813.125298216939                       # Per-requestor bytes read from memory rate (Bytes/sec)
system.mem_ctrls.requestorWriteRate::.writebacks 2179614.541979546659                       # Per-requestor bytes write to memory rate (Bytes/sec)
system.mem_ctrls.requestorReadAccesses::.cpu.inst         2643                       # Per-requestor read serviced memory accesses
system.mem_ctrls.requestorReadAccesses::.cpu.data         5293                       # Per-requestor read serviced memory accesses
system.mem_ctrls.requestorWriteAccesses::.writebacks          158                       # Per-requestor write serviced memory accesses
system.mem_ctrls.requestorReadTotalLat::.cpu.inst     63428500                       # Per-requestor read total memory access latency
system.mem_ctrls.requestorReadTotalLat::.cpu.data    129849500                       # Per-requestor read total memory access latency
system.mem_ctrls.requestorWriteTotalLat::.writebacks  21504818000                       # Per-requestor write total memory access latency
system.mem_ctrls.requestorReadAvgLat::.cpu.inst     23998.68                       # Per-requestor read average memory access latency
[...]
system.mem_ctrls.dram.bw_total::.cpu.data    115366998                       # Total bandwidth to/from this memory (bytes/s)
system.mem_ctrls.dram.bw_total::total       176418001                       # Total bandwidth to/from this memory (bytes/s)
system.mem_ctrls.dram.readBursts                 7932                       # Number of DRAM read bursts
system.mem_ctrls.dram.writeBursts                 100                       # Number of DRAM write bursts
system.mem_ctrls.dram.perBankRdBursts::0          603                       # Per bank write bursts
system.mem_ctrls.dram.perBankRdBursts::1          423                       # Per bank write bursts
system.mem_ctrls.dram.perBankRdBursts::2          424                       # Per bank write bursts
system.mem_ctrls.dram.perBankRdBursts::3          556                       # Per bank write bursts
system.mem_ctrls.dram.perBankRdBursts::4          509                       # Per bank write bursts
system.mem_ctrls.dram.perBankRdBursts::5          396                       # Per bank write bursts
system.mem_ctrls.dram.perBankRdBursts::6          481                       # Per bank write bursts
system.mem_ctrls.dram.perBankRdBursts::7          324                       # Per bank write bursts
system.mem_ctrls.dram.perBankRdBursts::8          429                       # Per bank write bursts
system.mem_ctrls.dram.perBankRdBursts::9          774                       # Per bank write bursts
system.mem_ctrls.dram.perBankRdBursts::10          703                       # Per bank write bursts
system.mem_ctrls.dram.perBankRdBursts::11          596                       # Per bank write bursts
system.mem_ctrls.dram.perBankRdBursts::12          472                       # Per bank write bursts
system.mem_ctrls.dram.perBankRdBursts::13          366                       # Per bank write bursts
system.mem_ctrls.dram.perBankRdBursts::14          264                       # Per bank write bursts
system.mem_ctrls.dram.perBankRdBursts::15          612                       # Per bank write bursts
system.mem_ctrls.dram.perBankWrBursts::0            3                       # Per bank write bursts
system.mem_ctrls.dram.perBankWrBursts::1            0                       # Per bank write bursts
system.mem_ctrls.dram.perBankWrBursts::2            0                       # Per bank write bursts
system.mem_ctrls.dram.perBankWrBursts::3            0                       # Per bank write bursts
system.mem_ctrls.dram.perBankWrBursts::4            3                       # Per bank write bursts
system.mem_ctrls.dram.perBankWrBursts::5            0                       # Per bank write bursts
system.mem_ctrls.dram.perBankWrBursts::6            0                       # Per bank write bursts
system.mem_ctrls.dram.perBankWrBursts::7            8                       # Per bank write bursts
system.mem_ctrls.dram.perBankWrBursts::8            9                       # Per bank write bursts
system.mem_ctrls.dram.perBankWrBursts::9           23                       # Per bank write bursts
system.mem_ctrls.dram.perBankWrBursts::10           30                       # Per bank write bursts
system.mem_ctrls.dram.perBankWrBursts::11            5                       # Per bank write bursts
system.mem_ctrls.dram.perBankWrBursts::12            2                       # Per bank write bursts
system.mem_ctrls.dram.perBankWrBursts::13            0                       # Per bank write bursts
system.mem_ctrls.dram.perBankWrBursts::14            0                       # Per bank write bursts
system.mem_ctrls.dram.perBankWrBursts::15           17                       # Per bank write bursts
system.mem_ctrls.dram.totQLat                44553000                       # Total ticks spent queuing
system.mem_ctrls.dram.totBusLat              39660000                       # Total ticks spent in databus transfers
system.mem_ctrls.dram.totMemAccLat          193278000                       # Total ticks spent from burst creation until serviced by the DRAM
system.mem_ctrls.dram.avgQLat                 5616.87                       # Average queueing delay per DRAM burst
system.mem_ctrls.dram.avgBusLat               5000.00                       # Average bus latency per DRAM burst
system.mem_ctrls.dram.avgMemAccLat           24366.87                       # Average memory access latency per DRAM burst
system.mem_ctrls.dram.readRowHits                6651                       # Number of row buffer hits during reads
system.mem_ctrls.dram.writeRowHits                 79                       # Number of row buffer hits during writes
system.mem_ctrls.dram.readRowHitRate            83.85                       # Row buffer hit rate for reads
system.mem_ctrls.dram.writeRowHitRate           79.00                       # Row buffer hit rate for writes
system.mem_ctrls.dram.bytesPerActivate::samples         1298                       # Bytes accessed per row activation
system.mem_ctrls.dram.bytesPerActivate::mean   394.699538                       # Bytes accessed per row activation
system.mem_ctrls.dram.bytesPerActivate::gmean   238.665337                       # Bytes accessed per row activation
system.mem_ctrls.dram.bytesPerActivate::stdev   366.437648                       # Bytes accessed per row activation
system.mem_ctrls.dram.bytesPerActivate::0-127          347     26.73%     26.73% # Bytes accessed per row activation
system.mem_ctrls.dram.bytesPerActivate::128-255          307     23.65%     50.39% # Bytes accessed per row activation
system.mem_ctrls.dram.bytesPerActivate::256-383          152     11.71%     62.10% # Bytes accessed per row activation
system.mem_ctrls.dram.bytesPerActivate::384-511           70      5.39%     67.49% # Bytes accessed per row activation
system.mem_ctrls.dram.bytesPerActivate::512-639           77      5.93%     73.42% # Bytes accessed per row activation
system.mem_ctrls.dram.bytesPerActivate::640-767           35      2.70%     76.12% # Bytes accessed per row activation
system.mem_ctrls.dram.bytesPerActivate::768-895           36      2.77%     78.89% # Bytes accessed per row activation
system.mem_ctrls.dram.bytesPerActivate::896-1023           29      2.23%     81.12% # Bytes accessed per row activation
system.mem_ctrls.dram.bytesPerActivate::1024-1151          245     18.88%    100.00% # Bytes accessed per row activation
system.mem_ctrls.dram.bytesPerActivate::total         1298                       # Bytes accessed per row activation
system.mem_ctrls.dram.bytesRead                507648                       # Total number of bytes read from DRAM
system.mem_ctrls.dram.bytesWritten               6400                       # Total number of bytes written to DRAM
system.mem_ctrls.dram.avgRdBW              345.774051                       # Average DRAM read bandwidth in MiBytes/s
system.mem_ctrls.dram.avgWrBW                4.359229                       # Average DRAM write bandwidth in MiBytes/s
system.mem_ctrls.dram.peakBW                 12800.00                       # Theoretical peak bandwidth in MiByte/s
system.mem_ctrls.dram.busUtil                    2.74                       # Data bus utilization in percentage
system.mem_ctrls.dram.busUtilRead                2.70                       # Data bus utilization in percentage for reads
system.mem_ctrls.dram.busUtilWrite               0.03                       # Data bus utilization in percentage for writes
system.mem_ctrls.dram.pageHitRate               83.79                       # Row buffer hit rate, read and write combined
system.mem_ctrls.dram.power_state.pwrStateResidencyTicks::UNDEFINED   1468149500                       # Cumulative time (in ticks) in various power states
system.mem_ctrls.dram.rank0.actEnergy         4898040                       # Energy for activate commands per rank (pJ)
system.mem_ctrls.dram.rank0.preEnergy         2595780                       # Energy for precharge commands per rank (pJ)
system.mem_ctrls.dram.rank0.readEnergy       26532240                       # Energy for read commands per rank (pJ)
system.mem_ctrls.dram.rank0.writeEnergy         73080                       # Energy for write commands per rank (pJ)
system.mem_ctrls.dram.rank0.refreshEnergy 115552320.000000                       # Energy for refresh commands per rank (pJ)
system.mem_ctrls.dram.rank0.actBackEnergy    371936400                       # Energy for active background per rank (pJ)
system.mem_ctrls.dram.rank0.preBackEnergy    250560000                       # Energy for precharge background per rank (pJ)
system.mem_ctrls.dram.rank0.actPowerDownEnergy            0                       # Energy for active power-down per rank (pJ)
system.mem_ctrls.dram.rank0.prePowerDownEnergy            0                       # Energy for precharge power-down per rank (pJ)
system.mem_ctrls.dram.rank0.selfRefreshEnergy            0                       # Energy for self refresh per rank (pJ)
system.mem_ctrls.dram.rank0.totalEnergy     772147860                       # Total energy per rank (pJ)
system.mem_ctrls.dram.rank0.averagePower   525.932720                       # Core power per rank (mW)
system.mem_ctrls.dram.rank0.totalIdleTime            0                       # Total Idle time Per DRAM Rank
system.mem_ctrls.dram.rank0.pwrStateTime::IDLE    647874750                       # Time in different power states
system.mem_ctrls.dram.rank0.pwrStateTime::REF     48880000                       # Time in different power states
system.mem_ctrls.dram.rank0.pwrStateTime::SREF            0                       # Time in different power states
system.mem_ctrls.dram.rank0.pwrStateTime::PRE_PDN            0                       # Time in different power states
system.mem_ctrls.dram.rank0.pwrStateTime::ACT    771394750                       # Time in different power states
system.mem_ctrls.dram.rank0.pwrStateTime::ACT_PDN            0                       # Time in different power states
system.mem_ctrls.dram.rank1.actEnergy         4398240                       # Energy for activate commands per rank (pJ)
system.mem_ctrls.dram.rank1.preEnergy         2330130                       # Energy for precharge commands per rank (pJ)
system.mem_ctrls.dram.rank1.readEnergy       30102240                       # Energy for read commands per rank (pJ)
system.mem_ctrls.dram.rank1.writeEnergy        448920                       # Energy for write commands per rank (pJ)
system.mem_ctrls.dram.rank1.refreshEnergy 115552320.000000                       # Energy for refresh commands per rank (pJ)
system.mem_ctrls.dram.rank1.actBackEnergy    410855430                       # Energy for active background per rank (pJ)
system.mem_ctrls.dram.rank1.preBackEnergy    217786080                       # Energy for precharge background per rank (pJ)
system.mem_ctrls.dram.rank1.actPowerDownEnergy            0                       # Energy for active power-down per rank (pJ)
system.mem_ctrls.dram.rank1.prePowerDownEnergy            0                       # Energy for precharge power-down per rank (pJ)
system.mem_ctrls.dram.rank1.selfRefreshEnergy            0                       # Energy for self refresh per rank (pJ)
system.mem_ctrls.dram.rank1.totalEnergy     781473360                       # Total energy per rank (pJ)
system.mem_ctrls.dram.rank1.averagePower   532.284594                       # Core power per rank (mW)
system.mem_ctrls.dram.rank1.totalIdleTime            0                       # Total Idle time Per DRAM Rank
system.mem_ctrls.dram.rank1.pwrStateTime::IDLE    561977000                       # Time in different power states
system.mem_ctrls.dram.rank1.pwrStateTime::REF     48880000                       # Time in different power states
system.mem_ctrls.dram.rank1.pwrStateTime::SREF            0                       # Time in different power states
system.mem_ctrls.dram.rank1.pwrStateTime::PRE_PDN            0                       # Time in different power states
system.mem_ctrls.dram.rank1.pwrStateTime::ACT    857292500                       # Time in different power states
system.mem_ctrls.dram.rank1.pwrStateTime::ACT_PDN            0                       # Time in different power states
system.mem_ctrls.power_state.pwrStateResidencyTicks::UNDEFINED   1468149500                       # Cumulative time (in ticks) in various power states
system.membus.trans_dist::ReadResp               6810                       # Transaction distribution
system.membus.trans_dist::WritebackDirty          158                       # Transaction distribution
system.membus.trans_dist::CleanEvict              906                       # Transaction distribution
system.membus.trans_dist::ReadExReq              1126                       # Transaction distribution
system.membus.trans_dist::ReadExResp             1126                       # Transaction distribution
system.membus.trans_dist::ReadSharedReq          6810                       # Transaction distribution
system.membus.pkt_count_system.l2.mem_side_port::system.mem_ctrls.port        16936                       # Packet count per connected requestor and responder (bytes)
system.membus.pkt_count_system.l2.mem_side_port::total        16936                       # Packet count per connected requestor and responder (bytes)
system.membus.pkt_count::total                  16936                       # Packet count per connected requestor and responder (bytes)
system.membus.pkt_size_system.l2.mem_side_port::system.mem_ctrls.port       259008                       # Cumulative packet size per connected requestor and responder (bytes)
system.membus.pkt_size_system.l2.mem_side_port::total       259008                       # Cumulative packet size per connected requestor and responder (bytes)
system.membus.pkt_size::total                  259008                       # Cumulative packet size per connected requestor and responder (bytes)
system.membus.snoops                                0                       # Total snoops (count)
system.membus.snoopTraffic                          0                       # Total snoop traffic (bytes)
system.membus.snoop_fanout::samples              7936                       # Request fanout histogram
system.membus.snoop_fanout::mean                    0                       # Request fanout histogram
system.membus.snoop_fanout::stdev                   0                       # Request fanout histogram
system.membus.snoop_fanout::underflows              0      0.00%      0.00% # Request fanout histogram
system.membus.snoop_fanout::0                    7936    100.00%    100.00% # Request fanout histogram
system.membus.snoop_fanout::1                       0      0.00%    100.00% # Request fanout histogram
system.membus.snoop_fanout::overflows               0      0.00%    100.00% # Request fanout histogram
system.membus.snoop_fanout::min_value               0                       # Request fanout histogram
system.membus.snoop_fanout::max_value               0                       # Request fanout histogram
system.membus.snoop_fanout::total                7936                       # Request fanout histogram
system.membus.power_state.pwrStateResidencyTicks::UNDEFINED   1468149500                       # Cumulative time (in ticks) in various power states
system.membus.reqLayer2.occupancy             9335500                       # Layer occupancy (ticks)
system.membus.reqLayer2.utilization               0.6                       # Layer utilization (%)
system.membus.respLayer1.occupancy           26162000                       # Layer occupancy (ticks)
system.membus.respLayer1.utilization              1.8                       # Layer utilization (%)
system.tol2bus.trans_dist::ReadResp              6900                       # Transaction distribution
system.tol2bus.trans_dist::WritebackDirty          715                       # Transaction distribution
system.tol2bus.trans_dist::CleanEvict            5191                       # Transaction distribution
system.tol2bus.trans_dist::ReadExReq             1138                       # Transaction distribution
system.tol2bus.trans_dist::ReadExResp            1138                       # Transaction distribution
system.tol2bus.trans_dist::ReadCleanReq          2643                       # Transaction distribution
system.tol2bus.trans_dist::ReadSharedReq         4257                       # Transaction distribution
system.tol2bus.pkt_count_system.cpu.icache.mem_side_port::system.l2.cpu_side_port         5286                       # Packet count per connected requestor and responder (bytes)
system.tol2bus.pkt_count_system.cpu.dcache.mem_side_port::system.l2.cpu_side_port        12301                       # Packet count per connected requestor and responder (bytes)
system.tol2bus.pkt_count::total                 17587                       # Packet count per connected requestor and responder (bytes)
system.tol2bus.pkt_size_system.cpu.icache.mem_side_port::system.l2.cpu_side_port        84576                       # Cumulative packet size per connected requestor and responder (bytes)
system.tol2bus.pkt_size_system.cpu.dcache.mem_side_port::system.l2.cpu_side_port       190464                       # Cumulative packet size per connected requestor and responder (bytes)
system.tol2bus.pkt_size::total                 275040                       # Cumulative packet size per connected requestor and responder (bytes)
system.tol2bus.snoops                            4395                       # Total snoops (count)
system.tol2bus.snoopTraffic                      5056                       # Total snoop traffic (bytes)
system.tol2bus.snoop_fanout::samples            12433                       # Request fanout histogram
system.tol2bus.snoop_fanout::mean            0.337409                       # Request fanout histogram
system.tol2bus.snoop_fanout::stdev           0.472845                       # Request fanout histogram
system.tol2bus.snoop_fanout::underflows             0      0.00%      0.00% # Request fanout histogram
system.tol2bus.snoop_fanout::0                   8238     66.26%     66.26% # Request fanout histogram
system.tol2bus.snoop_fanout::1                   4195     33.74%    100.00% # Request fanout histogram
system.tol2bus.snoop_fanout::2                      0      0.00%    100.00% # Request fanout histogram
system.tol2bus.snoop_fanout::3                      0      0.00%    100.00% # Request fanout histogram
system.tol2bus.snoop_fanout::4                      0      0.00%    100.00% # Request fanout histogram
system.tol2bus.snoop_fanout::overflows              0      0.00%    100.00% # Request fanout histogram
system.tol2bus.snoop_fanout::min_value              0                       # Request fanout histogram
system.tol2bus.snoop_fanout::max_value              1                       # Request fanout histogram
system.tol2bus.snoop_fanout::total              12433                       # Request fanout histogram
system.tol2bus.power_state.pwrStateResidencyTicks::UNDEFINED   1468149500                       # Cumulative time (in ticks) in various power states
system.tol2bus.reqLayer0.occupancy            5053000                       # Layer occupancy (ticks)
system.tol2bus.reqLayer0.utilization              0.3                       # Layer utilization (%)
system.tol2bus.respLayer0.occupancy           2643000                       # Layer occupancy (ticks)
system.tol2bus.respLayer0.utilization             0.2                       # Layer utilization (%)
system.tol2bus.respLayer1.occupancy           5395000                       # Layer occupancy (ticks)
system.tol2bus.respLayer1.utilization             0.4                       # Layer utilization (%)
system.voltage_domain.voltage                       1                       # Voltage in Volts

---------- End Simulation Statistics   ----------
