
---------- Begin Simulation Statistics ----------
final_tick                               187796909500                       # Number of ticks from beginning of simulation (restored from checkpoints and never reset)
host_inst_rate                                 532669                       # Simulator instruction rate (inst/s)
host_mem_usage                                 704364                       # Number of bytes of host memory used
host_op_rate                                   842179                       # Simulator op (including micro ops) rate (op/s)
host_seconds                                   187.73                       # Real time elapsed on the host
host_tick_rate                             1000335418                       # Simulator tick rate (ticks/s)
sim_freq                                 1000000000000                       # Frequency of simulated ticks
sim_insts                                   100000001                       # Number of instructions simulated
sim_ops                                     158105592                       # Number of ops (including micro ops) simulated
sim_seconds                                  0.187797                       # Number of seconds simulated
sim_ticks                                187796909500                       # Number of ticks simulated
system.cpu.Branches                           8068245                       # Number of branches fetched
system.cpu.committedInsts                   100000001                       # Number of instructions committed
system.cpu.committedOps                     158105592                       # Number of ops (including micro ops) committed
system.cpu.idle_fraction                            0                       # Percentage of idle cycles
system.cpu.not_idle_fraction                        1                       # Percentage of non-idle cycles
system.cpu.numCycles                        375593819                       # number of cpu cycles simulated
system.cpu.numWorkItemsCompleted                    0                       # number of work items this cpu completed
system.cpu.numWorkItemsStarted                      0                       # number of work items this cpu started
system.cpu.num_busy_cycles                  375593819                       # Number of busy cycles
system.cpu.num_cc_register_reads             26309364                       # number of times the CC registers were read
system.cpu.num_cc_register_writes            50490369                       # number of times the CC registers were written
system.cpu.num_conditional_control_insts      4194429                       # number of instructions that are conditional controls
system.cpu.num_fp_alu_accesses               33007950                       # Number of float alu accesses
system.cpu.num_fp_insts                      33007950                       # number of float instructions
system.cpu.num_fp_register_reads             36021489                       # number of times the floating registers were read
system.cpu.num_fp_register_writes            28984633                       # number of times the floating registers were written
system.cpu.num_func_calls                      911313                       # number of times a function call or return occured
system.cpu.num_idle_cycles                          0                       # Number of idle cycles
system.cpu.num_int_alu_accesses             137710574                       # Number of integer alu accesses
system.cpu.num_int_insts                    137710574                       # number of integer instructions
system.cpu.num_int_register_reads           303623416                       # number of times the integer registers were read
system.cpu.num_int_register_writes          116067071                       # number of times the integer registers were written
system.cpu.num_load_insts                    42950395                       # Number of load instructions
system.cpu.num_mem_refs                      50914575                       # number of memory refs
system.cpu.num_store_insts                    7964180                       # Number of store instructions
system.cpu.num_vec_alu_accesses                     0                       # Number of vector alu accesses
system.cpu.num_vec_insts                            0                       # number of vector instructions
system.cpu.num_vec_register_reads                   0                       # number of times the vector registers were read
system.cpu.num_vec_register_writes                  0                       # number of times the vector registers were written
system.cpu.op_class::No_OpClass                737110      0.47%      0.47% # Class of executed instruction
system.cpu.op_class::IntAlu                  83725076     52.96%     53.42% # Class of executed instruction
system.cpu.op_class::IntMult                  3991004      2.52%     55.95% # Class of executed instruction
system.cpu.op_class::IntDiv                     35934      0.02%     55.97% # Class of executed instruction
system.cpu.op_class::FloatAdd                 7424559      4.70%     60.66% # Class of executed instruction
system.cpu.op_class::FloatCmp                       0      0.00%     60.66% # Class of executed instruction
system.cpu.op_class::FloatCvt                    1104      0.00%     60.66% # Class of executed instruction
system.cpu.op_class::FloatMult                      0      0.00%     60.66% # Class of executed instruction
system.cpu.op_class::FloatMultAcc                   0      0.00%     60.66% # Class of executed instruction
system.cpu.op_class::FloatDiv                       0      0.00%     60.66% # Class of executed instruction
system.cpu.op_class::FloatMisc                      0      0.00%     60.66% # Class of executed instruction
system.cpu.op_class::FloatSqrt                      0      0.00%     60.66% # Class of executed instruction
system.cpu.op_class::SimdAdd                     6594      0.00%     60.67% # Class of executed instruction
system.cpu.op_class::SimdAddAcc                     0      0.00%     60.67% # Class of executed instruction
system.cpu.op_class::SimdAlu                  2217297      1.40%     62.07% # Class of executed instruction
system.cpu.op_class::SimdCmp                        0      0.00%     62.07% # Class of executed instruction
system.cpu.op_class::SimdCvt                    13550      0.01%     62.08% # Class of executed instruction
system.cpu.op_class::SimdMisc                 1026602      0.65%     62.73% # Class of executed instruction
system.cpu.op_class::SimdMult                       0      0.00%     62.73% # Class of executed instruction
system.cpu.op_class::SimdMultAcc                    0      0.00%     62.73% # Class of executed instruction
system.cpu.op_class::SimdShift                    341      0.00%     62.73% # Class of executed instruction
system.cpu.op_class::SimdShiftAcc                   0      0.00%     62.73% # Class of executed instruction
system.cpu.op_class::SimdDiv                        0      0.00%     62.73% # Class of executed instruction
system.cpu.op_class::SimdSqrt                       0      0.00%     62.73% # Class of executed instruction
system.cpu.op_class::SimdFloatAdd             3435965      2.17%     64.90% # Class of executed instruction
system.cpu.op_class::SimdFloatAlu                   0      0.00%     64.90% # Class of executed instruction
system.cpu.op_class::SimdFloatCmp                   0      0.00%     64.90% # Class of executed instruction
system.cpu.op_class::SimdFloatCvt              516159      0.33%     65.23% # Class of executed instruction
system.cpu.op_class::SimdFloatDiv              103976      0.07%     65.30% # Class of executed instruction
system.cpu.op_class::SimdFloatMisc                  0      0.00%     65.30% # Class of executed instruction
system.cpu.op_class::SimdFloatMult            3955815      2.50%     67.80% # Class of executed instruction
system.cpu.op_class::SimdFloatMultAcc               0      0.00%     67.80% # Class of executed instruction
system.cpu.op_class::SimdFloatSqrt                256      0.00%     67.80% # Class of executed instruction
system.cpu.op_class::SimdReduceAdd                  0      0.00%     67.80% # Class of executed instruction
system.cpu.op_class::SimdReduceAlu                  0      0.00%     67.80% # Class of executed instruction
system.cpu.op_class::SimdReduceCmp                  0      0.00%     67.80% # Class of executed instruction
system.cpu.op_class::SimdFloatReduceAdd             0      0.00%     67.80% # Class of executed instruction
system.cpu.op_class::SimdFloatReduceCmp             0      0.00%     67.80% # Class of executed instruction
system.cpu.op_class::SimdAes                        0      0.00%     67.80% # Class of executed instruction
system.cpu.op_class::SimdAesMix                     0      0.00%     67.80% # Class of executed instruction
system.cpu.op_class::SimdSha1Hash                   0      0.00%     67.80% # Class of executed instruction
system.cpu.op_class::SimdSha1Hash2                  0      0.00%     67.80% # Class of executed instruction
system.cpu.op_class::SimdSha256Hash                 0      0.00%     67.80% # Class of executed instruction
system.cpu.op_class::SimdSha256Hash2                0      0.00%     67.80% # Class of executed instruction
system.cpu.op_class::SimdShaSigma2                  0      0.00%     67.80% # Class of executed instruction
system.cpu.op_class::SimdShaSigma3                  0      0.00%     67.80% # Class of executed instruction
system.cpu.op_class::SimdPredAlu                    0      0.00%     67.80% # Class of executed instruction
system.cpu.op_class::MemRead                 33643170     21.28%     89.08% # Class of executed instruction
system.cpu.op_class::MemWrite                 4944921      3.13%     92.20% # Class of executed instruction
system.cpu.op_class::FloatMemRead             9307225      5.89%     98.09% # Class of executed instruction
system.cpu.op_class::FloatMemWrite            3019259      1.91%    100.00% # Class of executed instruction
system.cpu.op_class::IprAccess                      0      0.00%    100.00% # Class of executed instruction
system.cpu.op_class::InstPrefetch                   0      0.00%    100.00% # Class of executed instruction
system.cpu.op_class::total                  158105917                       # Class of executed instruction
system.cpu.workload.numSyscalls                    68                       # Number of system calls
system.membus.snoop_filter.hit_multi_requests            0                       # Number of requests hitting in the snoop filter with multiple (>1) holders of the requested data.
system.membus.snoop_filter.hit_multi_snoops            0                       # Number of snoops hitting in the snoop filter with multiple (>1) holders of the requested data.
system.membus.snoop_filter.hit_single_requests        17540                       # Number of requests hitting in the snoop filter with a single holder of the requested data.
system.membus.snoop_filter.hit_single_snoops            0                       # Number of snoops hitting in the snoop filter with a single holder of the requested data.
system.membus.snoop_filter.tot_requests         42516                       # Total number of requests made to the snoop filter.
system.membus.snoop_filter.tot_snoops               0                       # Total number of snoops made to the snoop filter.
system.tol2bus.snoop_filter.hit_multi_requests            0                       # Number of requests hitting in the snoop filter with multiple (>1) holders of the requested data.
system.tol2bus.snoop_filter.hit_multi_snoops            0                       # Number of snoops hitting in the snoop filter with multiple (>1) holders of the requested data.
system.tol2bus.snoop_filter.hit_single_requests        19200                       # Number of requests hitting in the snoop filter with a single holder of the requested data.
system.tol2bus.snoop_filter.hit_single_snoops        21088                       # Number of snoops hitting in the snoop filter with a single holder of the requested data.
system.tol2bus.snoop_filter.tot_requests        45386                       # Total number of requests made to the snoop filter.
system.tol2bus.snoop_filter.tot_snoops          21088                       # Total number of snoops made to the snoop filter.
system.clk_domain.clock                          1000                       # Clock period in ticks
system.cpu.dcache.demand_hits::.cpu.data     50891443                       # number of demand (read+write) hits
system.cpu.dcache.demand_hits::total         50891443                       # number of demand (read+write) hits
system.cpu.dcache.overall_hits::.cpu.data     50891443                       # number of overall hits
system.cpu.dcache.overall_hits::total        50891443                       # number of overall hits
system.cpu.dcache.demand_misses::.cpu.data        23182                       # number of demand (read+write) misses
system.cpu.dcache.demand_misses::total          23182                       # number of demand (read+write) misses
system.cpu.dcache.overall_misses::.cpu.data        23182                       # number of overall misses
system.cpu.dcache.overall_misses::total         23182                       # number of overall misses
system.cpu.dcache.demand_miss_latency::.cpu.data   1834804000                       # number of demand (read+write) miss cycles
system.cpu.dcache.demand_miss_latency::total   1834804000                       # number of demand (read+write) miss cycles
system.cpu.dcache.overall_miss_latency::.cpu.data   1834804000                       # number of overall miss cycles
system.cpu.dcache.overall_miss_latency::total   1834804000                       # number of overall miss cycles
system.cpu.dcache.demand_accesses::.cpu.data     50914625                       # number of demand (read+write) accesses
system.cpu.dcache.demand_accesses::total     50914625                       # number of demand (read+write) accesses
system.cpu.dcache.overall_accesses::.cpu.data     50914625                       # number of overall (read+write) accesses
system.cpu.dcache.overall_accesses::total     50914625                       # number of overall (read+write) accesses
system.cpu.dcache.demand_miss_rate::.cpu.data     0.000455                       # miss rate for demand accesses
system.cpu.dcache.demand_miss_rate::total     0.000455                       # miss rate for demand accesses
system.cpu.dcache.overall_miss_rate::.cpu.data     0.000455                       # miss rate for overall accesses
system.cpu.dcache.overall_miss_rate::total     0.000455                       # miss rate for overall accesses
system.cpu.dcache.demand_avg_miss_latency::.cpu.data 79147.787076                       # average overall miss latency
system.cpu.dcache.demand_avg_miss_latency::total 79147.787076                       # average overall miss latency
system.cpu.dcache.overall_avg_miss_latency::.cpu.data 79147.787076                       # average overall miss latency
system.cpu.dcache.overall_avg_miss_latency::total 79147.787076                       # average overall miss latency
system.cpu.dcache.blocked_cycles::no_mshrs            0                       # number of cycles access was blocked
system.cpu.dcache.blocked_cycles::no_targets            0                       # number of cycles access was blocked
system.cpu.dcache.blocked::no_mshrs                 0                       # number of cycles access was blocked
system.cpu.dcache.blocked::no_targets               0                       # number of cycles access was blocked
system.cpu.dcache.avg_blocked_cycles::no_mshrs          nan                       # average number of cycles each access was blocked
system.cpu.dcache.avg_blocked_cycles::no_targets          nan                       # average number of cycles each access was blocked
system.cpu.dcache.writebacks::.writebacks         4163                       # number of writebacks
system.cpu.dcache.writebacks::total              4163                       # number of writebacks
system.cpu.dcache.demand_mshr_misses::.cpu.data        23182                       # number of demand (read+write) MSHR misses
system.cpu.dcache.demand_mshr_misses::total        23182                       # number of demand (read+write) MSHR misses
system.cpu.dcache.overall_mshr_misses::.cpu.data        23182                       # number of overall MSHR misses
system.cpu.dcache.overall_mshr_misses::total        23182                       # number of overall MSHR misses
system.cpu.dcache.demand_mshr_miss_latency::.cpu.data   1811622000                       # number of demand (read+write) MSHR miss cycles
system.cpu.dcache.demand_mshr_miss_latency::total   1811622000                       # number of demand (read+write) MSHR miss cycles
system.cpu.dcache.overall_mshr_miss_latency::.cpu.data   1811622000                       # number of overall MSHR miss cycles
system.cpu.dcache.overall_mshr_miss_latency::total   1811622000                       # number of overall MSHR miss cycles
system.cpu.dcache.demand_mshr_miss_rate::.cpu.data     0.000455                       # mshr miss rate for demand accesses
system.cpu.dcache.demand_mshr_miss_rate::total     0.000455                       # mshr miss rate for demand accesses
system.cpu.dcache.overall_mshr_miss_rate::.cpu.data     0.000455                       # mshr miss rate for overall accesses
system.cpu.dcache.overall_mshr_miss_rate::total     0.000455                       # mshr miss rate for overall accesses
system.cpu.dcache.demand_avg_mshr_miss_latency::.cpu.data 78147.787076                       # average overall mshr miss latency
system.cpu.dcache.demand_avg_mshr_miss_latency::total 78147.787076                       # average overall mshr miss latency
system.cpu.dcache.overall_avg_mshr_miss_latency::.cpu.data 78147.787076                       # average overall mshr miss latency
system.cpu.dcache.overall_avg_mshr_miss_latency::total 78147.787076                       # average overall mshr miss latency
system.cpu.dcache.replacements                  19086                       # number of replacements
system.cpu.dcache.ReadReq_hits::.cpu.data     42932109                       # number of ReadReq hits
system.cpu.dcache.ReadReq_hits::total        42932109                       # number of ReadReq hits
system.cpu.dcache.ReadReq_misses::.cpu.data        18364                       # number of ReadReq misses
system.cpu.dcache.ReadReq_misses::total         18364                       # number of ReadReq misses
system.cpu.dcache.ReadReq_miss_latency::.cpu.data   1491608000                       # number of ReadReq miss cycles
system.cpu.dcache.ReadReq_miss_latency::total   1491608000                       # number of ReadReq miss cycles
system.cpu.dcache.ReadReq_accesses::.cpu.data     42950473                       # number of ReadReq accesses(hits+misses)
system.cpu.dcache.ReadReq_accesses::total     42950473                       # number of ReadReq accesses(hits+misses)
system.cpu.dcache.ReadReq_miss_rate::.cpu.data     0.000428                       # miss rate for ReadReq accesses
system.cpu.dcache.ReadReq_miss_rate::total     0.000428                       # miss rate for ReadReq accesses
system.cpu.dcache.ReadReq_avg_miss_latency::.cpu.data 81224.569810                       # average ReadReq miss latency
system.cpu.dcache.ReadReq_avg_miss_latency::total 81224.569810                       # average ReadReq miss latency
system.cpu.dcache.ReadReq_mshr_misses::.cpu.data        18364                       # number of ReadReq MSHR misses
system.cpu.dcache.ReadReq_mshr_misses::total        18364                       # number of ReadReq MSHR misses
system.cpu.dcache.ReadReq_mshr_miss_latency::.cpu.data   1473244000                       # number of ReadReq MSHR miss cycles
system.cpu.dcache.ReadReq_mshr_miss_latency::total   1473244000                       # number of ReadReq MSHR miss cycles
system.cpu.dcache.ReadReq_mshr_miss_rate::.cpu.data     0.000428                       # mshr miss rate for ReadReq accesses
system.cpu.dcache.ReadReq_mshr_miss_rate::total     0.000428                       # mshr miss rate for ReadReq accesses
system.cpu.dcache.ReadReq_avg_mshr_miss_latency::.cpu.data 80224.569810                       # average ReadReq mshr miss latency
system.cpu.dcache.ReadReq_avg_mshr_miss_latency::total 80224.569810                       # average ReadReq mshr miss latency
system.cpu.dcache.WriteReq_hits::.cpu.data      7959334                       # number of WriteReq hits
system.cpu.dcache.WriteReq_hits::total        7959334                       # number of WriteReq hits
system.cpu.dcache.WriteReq_misses::.cpu.data         4818                       # number of WriteReq misses
system.cpu.dcache.WriteReq_misses::total         4818                       # number of WriteReq misses
system.cpu.dcache.WriteReq_miss_latency::.cpu.data    343196000                       # number of WriteReq miss cycles
system.cpu.dcache.WriteReq_miss_latency::total    343196000                       # number of WriteReq miss cycles
system.cpu.dcache.WriteReq_accesses::.cpu.data      7964152                       # number of WriteReq accesses(hits+misses)
system.cpu.dcache.WriteReq_accesses::total      7964152                       # number of WriteReq accesses(hits+misses)
system.cpu.dcache.WriteReq_miss_rate::.cpu.data     0.000605                       # miss rate for WriteReq accesses
system.cpu.dcache.WriteReq_miss_rate::total     0.000605                       # miss rate for WriteReq accesses
system.cpu.dcache.WriteReq_avg_miss_latency::.cpu.data 71232.046492                       # average WriteReq miss latency
system.cpu.dcache.WriteReq_avg_miss_latency::total 71232.046492                       # average WriteReq miss latency
system.cpu.dcache.WriteReq_mshr_misses::.cpu.data         4818                       # number of WriteReq MSHR misses
system.cpu.dcache.WriteReq_mshr_misses::total         4818                       # number of WriteReq MSHR misses
system.cpu.dcache.WriteReq_mshr_miss_latency::.cpu.data    338378000                       # number of WriteReq MSHR miss cycles
system.cpu.dcache.WriteReq_mshr_miss_latency::total    338378000                       # number of WriteReq MSHR miss cycles
system.cpu.dcache.WriteReq_mshr_miss_rate::.cpu.data     0.000605                       # mshr miss rate for WriteReq accesses
system.cpu.dcache.WriteReq_mshr_miss_rate::total     0.000605                       # mshr miss rate for WriteReq accesses
system.cpu.dcache.WriteReq_avg_mshr_miss_latency::.cpu.data 70232.046492                       # average WriteReq mshr miss latency
system.cpu.dcache.WriteReq_avg_mshr_miss_latency::total 70232.046492                       # average WriteReq mshr miss latency
system.cpu.dcache.power_state.pwrStateResidencyTicks::UNDEFINED 187796909500                       # Cumulative time (in ticks) in various power states
system.cpu.dcache.tags.tagsinuse          4086.191760                       # Cycle average of tags in use
system.cpu.dcache.tags.total_refs            50914625                       # Total number of references to valid blocks.
system.cpu.dcache.tags.sampled_refs             23182                       # Sample count of references to valid blocks.
system.cpu.dcache.tags.avg_refs           2196.299931                       # Average number of references to valid blocks.
system.cpu.dcache.tags.warmup_cycle            174500                       # Cycle when the warmup percentage was hit.
system.cpu.dcache.tags.occ_blocks::.cpu.data  4086.191760                       # Average occupied blocks per requestor
system.cpu.dcache.tags.occ_percent::.cpu.data     0.997605                       # Average percentage of cache occupancy
system.cpu.dcache.tags.occ_percent::total     0.997605                       # Average percentage of cache occupancy
system.cpu.dcache.tags.occ_task_id_blocks::1024         4096                       # Occupied blocks per task id
system.cpu.dcache.tags.age_task_id_blocks_1024::1            1                       # Occupied blocks per task id
system.cpu.dcache.tags.age_task_id_blocks_1024::2            1                       # Occupied blocks per task id
system.cpu.dcache.tags.age_task_id_blocks_1024::4         4094                       # Occupied blocks per task id
system.cpu.dcache.tags.occ_task_id_percent::1024            1                       # Percentage of cache occupancy per task id
system.cpu.dcache.tags.tag_accesses         101852432                       # Number of tag accesses
system.cpu.dcache.tags.data_accesses        101852432                       # Number of data accesses
system.cpu.dcache.tags.power_state.pwrStateResidencyTicks::UNDEFINED 187796909500                       # Cumulative time (in ticks) in various power states
system.cpu.dtb.rdAccesses                    42950693                       # TLB accesses on read requests
system.cpu.dtb.wrAccesses                     7964190                       # TLB accesses on write requests
system.cpu.dtb.rdMisses                          1293                       # TLB misses on read requests
system.cpu.dtb.wrMisses                           115                       # TLB misses on write requests
system.cpu.dtb.walker.power_state.pwrStateResidencyTicks::UNDEFINED 187796909500                       # Cumulative time (in ticks) in various power states
system.cpu.dtb_walker_cache.blocked_cycles::no_mshrs            0                       # number of cycles access was blocked
system.cpu.dtb_walker_cache.blocked_cycles::no_targets            0                       # number of cycles access was blocked
system.cpu.dtb_walker_cache.blocked::no_mshrs            0                       # number of cycles access was blocked
system.cpu.dtb_walker_cache.blocked::no_targets            0                       # number of cycles access was blocked
system.cpu.dtb_walker_cache.avg_blocked_cycles::no_mshrs          nan                       # average number of cycles each access was blocked
system.cpu.dtb_walker_cache.avg_blocked_cycles::no_targets          nan                       # average number of cycles each access was blocked
system.cpu.dtb_walker_cache.replacements            0                       # number of replacements
system.cpu.dtb_walker_cache.power_state.pwrStateResidencyTicks::UNDEFINED 187796909500                       # Cumulative time (in ticks) in various power states
system.cpu.dtb_walker_cache.tags.tagsinuse            0                       # Cycle average of tags in use
system.cpu.dtb_walker_cache.tags.total_refs            0                       # Total number of references to valid blocks.
system.cpu.dtb_walker_cache.tags.sampled_refs            0                       # Sample count of references to valid blocks.
system.cpu.dtb_walker_cache.tags.avg_refs          nan                       # Average number of references to valid blocks.
system.cpu.dtb_walker_cache.tags.warmup_cycle            0                       # Cycle when the warmup percentage was hit.
system.cpu.dtb_walker_cache.tags.tag_accesses            0                       # Number of tag accesses
system.cpu.dtb_walker_cache.tags.data_accesses            0                       # Number of data accesses
system.cpu.dtb_walker_cache.tags.power_state.pwrStateResidencyTicks::UNDEFINED 187796909500                       # Cumulative time (in ticks) in various power states
system.cpu.icache.demand_hits::.cpu.inst    134834559                       # number of demand (read+write) hits
system.cpu.icache.demand_hits::total        134834559                       # number of demand (read+write) hits
system.cpu.icache.overall_hits::.cpu.inst    134834559                       # number of overall hits
system.cpu.icache.overall_hits::total       134834559                       # number of overall hits
system.cpu.icache.demand_misses::.cpu.inst         3004                       # number of demand (read+write) misses
system.cpu.icache.demand_misses::total           3004                       # number of demand (read+write) misses
system.cpu.icache.overall_misses::.cpu.inst         3004                       # number of overall misses
system.cpu.icache.overall_misses::total          3004                       # number of overall misses
system.cpu.icache.demand_miss_latency::.cpu.inst    236917500                       # number of demand (read+write) miss cycles
system.cpu.icache.demand_miss_latency::total    236917500                       # number of demand (read+write) miss cycles
system.cpu.icache.overall_miss_latency::.cpu.inst    236917500                       # number of overall miss cycles
system.cpu.icache.overall_miss_latency::total    236917500                       # number of overall miss cycles
system.cpu.icache.demand_accesses::.cpu.inst    134837563                       # number of demand (read+write) accesses
system.cpu.icache.demand_accesses::total    134837563                       # number of demand (read+write) accesses
system.cpu.icache.overall_accesses::.cpu.inst    134837563                       # number of overall (read+write) accesses
system.cpu.icache.overall_accesses::total    134837563                       # number of overall (read+write) accesses
system.cpu.icache.demand_miss_rate::.cpu.inst     0.000022                       # miss rate for demand accesses
system.cpu.icache.demand_miss_rate::total     0.000022                       # miss rate for demand accesses
system.cpu.icache.overall_miss_rate::.cpu.inst     0.000022                       # miss rate for overall accesses
system.cpu.icache.overall_miss_rate::total     0.000022                       # miss rate for overall accesses
system.cpu.icache.demand_avg_miss_latency::.cpu.inst 78867.343542                       # average overall miss latency
system.cpu.icache.demand_avg_miss_latency::total 78867.343542                       # average overall miss latency
system.cpu.icache.overall_avg_miss_latency::.cpu.inst 78867.343542                       # average overall miss latency
system.cpu.icache.overall_avg_miss_latency::total 78867.343542                       # average overall miss latency
system.cpu.icache.blocked_cycles::no_mshrs            0                       # number of cycles access was blocked
system.cpu.icache.blocked_cycles::no_targets            0                       # number of cycles access was blocked
system.cpu.icache.blocked::no_mshrs                 0                       # number of cycles access was blocked
system.cpu.icache.blocked::no_targets               0                       # number of cycles access was blocked
system.cpu.icache.avg_blocked_cycles::no_mshrs          nan                       # average number of cycles each access was blocked
system.cpu.icache.avg_blocked_cycles::no_targets          nan                       # average number of cycles each access was blocked
system.cpu.icache.writebacks::.writebacks          114                       # number of writebacks
system.cpu.icache.writebacks::total               114                       # number of writebacks
system.cpu.icache.demand_mshr_misses::.cpu.inst         3004                       # number of demand (read+write) MSHR misses
system.cpu.icache.demand_mshr_misses::total         3004                       # number of demand (read+write) MSHR misses
system.cpu.icache.overall_mshr_misses::.cpu.inst         3004                       # number of overall MSHR misses
system.cpu.icache.overall_mshr_misses::total         3004                       # number of overall MSHR misses
system.cpu.icache.demand_mshr_miss_latency::.cpu.inst    233913500                       # number of demand (read+write) MSHR miss cycles
system.cpu.icache.demand_mshr_miss_latency::total    233913500                       # number of demand (read+write) MSHR miss cycles
system.cpu.icache.overall_mshr_miss_latency::.cpu.inst    233913500                       # number of overall MSHR miss cycles
system.cpu.icache.overall_mshr_miss_latency::total    233913500                       # number of overall MSHR miss cycles
system.cpu.icache.demand_mshr_miss_rate::.cpu.inst     0.000022                       # mshr miss rate for demand accesses
system.cpu.icache.demand_mshr_miss_rate::total     0.000022                       # mshr miss rate for demand accesses
system.cpu.icache.overall_mshr_miss_rate::.cpu.inst     0.000022                       # mshr miss rate for overall accesses
system.cpu.icache.overall_mshr_miss_rate::total     0.000022                       # mshr miss rate for overall accesses
system.cpu.icache.demand_avg_mshr_miss_latency::.cpu.inst 77867.343542                       # average overall mshr miss latency
system.cpu.icache.demand_avg_mshr_miss_latency::total 77867.343542                       # average overall mshr miss latency
system.cpu.icache.overall_avg_mshr_miss_latency::.cpu.inst 77867.343542                       # average overall mshr miss latency
system.cpu.icache.overall_avg_mshr_miss_latency::total 77867.343542                       # average overall mshr miss latency
system.cpu.icache.replacements                    114                       # number of replacements
system.cpu.icache.ReadReq_hits::.cpu.inst    134834559                       # number of ReadReq hits
system.cpu.icache.ReadReq_hits::total       134834559                       # number of ReadReq hits
system.cpu.icache.ReadReq_misses::.cpu.inst         3004                       # number of ReadReq misses
system.cpu.icache.ReadReq_misses::total          3004                       # number of ReadReq misses
system.cpu.icache.ReadReq_miss_latency::.cpu.inst    236917500                       # number of ReadReq miss cycles
system.cpu.icache.ReadReq_miss_latency::total    236917500                       # number of ReadReq miss cycles
system.cpu.icache.ReadReq_accesses::.cpu.inst    134837563                       # number of ReadReq accesses(hits+misses)
system.cpu.icache.ReadReq_accesses::total    134837563                       # number of ReadReq accesses(hits+misses)
system.cpu.icache.ReadReq_miss_rate::.cpu.inst     0.000022                       # miss rate for ReadReq accesses
system.cpu.icache.ReadReq_miss_rate::total     0.000022                       # miss rate for ReadReq accesses
system.cpu.icache.ReadReq_avg_miss_latency::.cpu.inst 78867.343542                       # average ReadReq miss latency
system.cpu.icache.ReadReq_avg_miss_latency::total 78867.343542                       # average ReadReq miss latency
system.cpu.icache.ReadReq_mshr_misses::.cpu.inst         3004                       # number of ReadReq MSHR misses
system.cpu.icache.ReadReq_mshr_misses::total         3004                       # number of ReadReq MSHR misses
system.cpu.icache.ReadReq_mshr_miss_latency::.cpu.inst    233913500                       # number of ReadReq MSHR miss cycles
system.cpu.icache.ReadReq_mshr_miss_latency::total    233913500                       # number of ReadReq MSHR miss cycles
system.cpu.icache.ReadReq_mshr_miss_rate::.cpu.inst     0.000022                       # mshr miss rate for ReadReq accesses
system.cpu.icache.ReadReq_mshr_miss_rate::total     0.000022                       # mshr miss rate for ReadReq accesses
system.cpu.icache.ReadReq_avg_mshr_miss_latency::.cpu.inst 77867.343542                       # average ReadReq mshr miss latency
system.cpu.icache.ReadReq_avg_mshr_miss_latency::total 77867.343542                       # average ReadReq mshr miss latency
system.cpu.icache.power_state.pwrStateResidencyTicks::UNDEFINED 187796909500                       # Cumulative time (in ticks) in various power states
system.cpu.icache.tags.tagsinuse          2842.424429                       # Cycle average of tags in use
system.cpu.icache.tags.total_refs           134837563                       # Total number of references to valid blocks.
system.cpu.icache.tags.sampled_refs              3004                       # Sample count of references to valid blocks.
system.cpu.icache.tags.avg_refs          44886.006325                       # Average number of references to valid blocks.
system.cpu.icache.tags.warmup_cycle             87500                       # Cycle when the warmup percentage was hit.
system.cpu.icache.tags.occ_blocks::.cpu.inst  2842.424429                       # Average occupied blocks per requestor
system.cpu.icache.tags.occ_percent::.cpu.inst     0.346976                       # Average percentage of cache occupancy
system.cpu.icache.tags.occ_percent::total     0.346976                       # Average percentage of cache occupancy
system.cpu.icache.tags.occ_task_id_blocks::1024         2890                       # Occupied blocks per task id
system.cpu.icache.tags.age_task_id_blocks_1024::4         2890                       # Occupied blocks per task id
system.cpu.icache.tags.occ_task_id_percent::1024     0.352783                       # Percentage of cache occupancy per task id
system.cpu.icache.tags.tag_accesses         269678130                       # Number of tag accesses
system.cpu.icache.tags.data_accesses        269678130                       # Number of data accesses
system.cpu.icache.tags.power_state.pwrStateResidencyTicks::UNDEFINED 187796909500                       # Cumulative time (in ticks) in various power states
system.cpu.interrupts.clk_domain.clock           8000                       # Clock period in ticks
system.cpu.itb.rdAccesses                           0                       # TLB accesses on read requests
system.cpu.itb.wrAccesses                   134837674                       # TLB accesses on write requests
system.cpu.itb.rdMisses                             0                       # TLB misses on read requests
system.cpu.itb.wrMisses                           376                       # TLB misses on write requests
system.cpu.itb.walker.power_state.pwrStateResidencyTicks::UNDEFINED 187796909500                       # Cumulative time (in ticks) in various power states
system.cpu.itb_walker_cache.blocked_cycles::no_mshrs            0                       # number of cycles access was blocked
system.cpu.itb_walker_cache.blocked_cycles::no_targets            0                       # number of cycles access was blocked
system.cpu.itb_walker_cache.blocked::no_mshrs            0                       # number of cycles access was blocked
system.cpu.itb_walker_cache.blocked::no_targets            0                       # number of cycles access was blocked
system.cpu.itb_walker_cache.avg_blocked_cycles::no_mshrs          nan                       # average number of cycles each access was blocked
system.cpu.itb_walker_cache.avg_blocked_cycles::no_targets          nan                       # average number of cycles each access was blocked
system.cpu.itb_walker_cache.replacements            0                       # number of replacements
system.cpu.itb_walker_cache.power_state.pwrStateResidencyTicks::UNDEFINED 187796909500                       # Cumulative time (in ticks) in various power states
system.cpu.itb_walker_cache.tags.tagsinuse            0                       # Cycle average of tags in use
system.cpu.itb_walker_cache.tags.total_refs            0                       # Total number of references to valid blocks.
system.cpu.itb_walker_cache.tags.sampled_refs            0                       # Sample count of references to valid blocks.
system.cpu.itb_walker_cache.tags.avg_refs          nan                       # Average number of references to valid blocks.
system.cpu.itb_walker_cache.tags.warmup_cycle            0                       # Cycle when the warmup percentage was hit.
system.cpu.itb_walker_cache.tags.tag_accesses            0                       # Number of tag accesses
system.cpu.itb_walker_cache.tags.data_accesses            0                       # Number of data accesses
system.cpu.itb_walker_cache.tags.power_state.pwrStateResidencyTicks::UNDEFINED 187796909500                       # Cumulative time (in ticks) in various power states
system.cpu.power_state.pwrStateResidencyTicks::ON 187796909500                       # Cumulative time (in ticks) in various power states
system.cpu.thread_0.numInsts                        0                       # Number of Instructions committed
system.cpu.thread_0.numOps                          0                       # Number of Ops committed
system.cpu.thread_0.numMemRefs                      0                       # Number of Memory References
system.cpu_clk_domain.clock                       500                       # Clock period in ticks
system.cpu_voltage_domain.voltage                   1                       # Voltage in Volts
system.l2.demand_hits::.cpu.data                 1210                       # number of demand (read+write) hits
system.l2.demand_hits::total                     1210                       # number of demand (read+write) hits
system.l2.overall_hits::.cpu.data                1210                       # number of overall hits
system.l2.overall_hits::total                    1210                       # number of overall hits
system.l2.demand_misses::.cpu.inst               3004                       # number of demand (read+write) misses
system.l2.demand_misses::.cpu.data              21972                       # number of demand (read+write) misses
system.l2.demand_misses::total                  24976                       # number of demand (read+write) misses
system.l2.overall_misses::.cpu.inst              3004                       # number of overall misses
system.l2.overall_misses::.cpu.data             21972                       # number of overall misses
system.l2.overall_misses::total                 24976                       # number of overall misses
system.l2.demand_miss_latency::.cpu.inst    229407500                       # number of demand (read+write) miss cycles
system.l2.demand_miss_latency::.cpu.data   1764140000                       # number of demand (read+write) miss cycles
system.l2.demand_miss_latency::total       1993547500                       # number of demand (read+write) miss cycles
system.l2.overall_miss_latency::.cpu.inst    229407500                       # number of overall miss cycles
system.l2.overall_miss_latency::.cpu.data   1764140000                       # number of overall miss cycles
system.l2.overall_miss_latency::total      1993547500                       # number of overall miss cycles
system.l2.demand_accesses::.cpu.inst             3004                       # number of demand (read+write) accesses
system.l2.demand_accesses::.cpu.data            23182                       # number of demand (read+write) accesses
system.l2.demand_accesses::total                26186                       # number of demand (read+write) accesses
system.l2.overall_accesses::.cpu.inst            3004                       # number of overall (read+write) accesses
system.l2.overall_accesses::.cpu.data           23182                       # number of overall (read+write) accesses
system.l2.overall_accesses::total               26186                       # number of overall (read+write) accesses
system.l2.demand_miss_rate::.cpu.inst               1                       # miss rate for demand accesses
system.l2.demand_miss_rate::.cpu.data        0.947804                       # miss rate for demand accesses
system.l2.demand_miss_rate::total            0.953792                       # miss rate for demand accesses
system.l2.overall_miss_rate::.cpu.inst              1                       # miss rate for overall accesses
system.l2.overall_miss_rate::.cpu.data       0.947804                       # miss rate for overall accesses
system.l2.overall_miss_rate::total           0.953792                       # miss rate for overall accesses
system.l2.demand_avg_miss_latency::.cpu.inst 76367.343542                       # average overall miss latency
system.l2.demand_avg_miss_latency::.cpu.data 80290.369561                       # average overall miss latency
system.l2.demand_avg_miss_latency::total 79818.525785                       # average overall miss latency
system.l2.overall_avg_miss_latency::.cpu.inst 76367.343542                       # average overall miss latency
system.l2.overall_avg_miss_latency::.cpu.data 80290.369561                       # average overall miss latency
system.l2.overall_avg_miss_latency::total 79818.525785                       # average overall miss latency
system.l2.blocked_cycles::no_mshrs                  0                       # number of cycles access was blocked
system.l2.blocked_cycles::no_targets                0                       # number of cycles access was blocked
system.l2.blocked::no_mshrs                         0                       # number of cycles access was blocked
system.l2.blocked::no_targets                       0                       # number of cycles access was blocked
system.l2.avg_blocked_cycles::no_mshrs            nan                       # average number of cycles each access was blocked
system.l2.avg_blocked_cycles::no_targets          nan                       # average number of cycles each access was blocked
system.l2.writebacks::.writebacks                2837                       # number of writebacks
system.l2.writebacks::total                      2837                       # number of writebacks
system.l2.demand_mshr_misses::.cpu.inst          3004                       # number of demand (read+write) MSHR misses
system.l2.demand_mshr_misses::.cpu.data         21972                       # number of demand (read+write) MSHR misses
system.l2.demand_mshr_misses::total             24976                       # number of demand (read+write) MSHR misses
system.l2.overall_mshr_misses::.cpu.inst         3004                       # number of overall MSHR misses
system.l2.overall_mshr_misses::.cpu.data        21972                       # number of overall MSHR misses
system.l2.overall_mshr_misses::total            24976                       # number of overall MSHR misses
system.l2.demand_mshr_miss_latency::.cpu.inst    199367500                       # number of demand (read+write) MSHR miss cycles
system.l2.demand_mshr_miss_latency::.cpu.data   1544420000                       # number of demand (read+write) MSHR miss cycles
system.l2.demand_mshr_miss_latency::total   1743787500                       # number of demand (read+write) MSHR miss cycles
system.l2.overall_mshr_miss_latency::.cpu.inst    199367500                       # number of overall MSHR miss cycles
system.l2.overall_mshr_miss_latency::.cpu.data   1544420000                       # number of overall MSHR miss cycles
system.l2.overall_mshr_miss_latency::total   1743787500                       # number of overall MSHR miss cycles
system.l2.demand_mshr_miss_rate::.cpu.inst            1                       # mshr miss rate for demand accesses
system.l2.demand_mshr_miss_rate::.cpu.data     0.947804                       # mshr miss rate for demand accesses
system.l2.demand_mshr_miss_rate::total       0.953792                       # mshr miss rate for demand accesses
system.l2.overall_mshr_miss_rate::.cpu.inst            1                       # mshr miss rate for overall accesses
system.l2.overall_mshr_miss_rate::.cpu.data     0.947804                       # mshr miss rate for overall accesses
system.l2.overall_mshr_miss_rate::total      0.953792                       # mshr miss rate for overall accesses
system.l2.demand_avg_mshr_miss_latency::.cpu.inst 66367.343542                       # average overall mshr miss latency
system.l2.demand_avg_mshr_miss_latency::.cpu.data 70290.369561                       # average overall mshr miss latency
system.l2.demand_avg_mshr_miss_latency::total 69818.525785                       # average overall mshr miss latency
system.l2.overall_avg_mshr_miss_latency::.cpu.inst 66367.343542                       # average overall mshr miss latency
system.l2.overall_avg_mshr_miss_latency::.cpu.data 70290.369561                       # average overall mshr miss latency
system.l2.overall_avg_mshr_miss_latency::total 69818.525785                       # average overall mshr miss latency
system.l2.replacements                          24878                       # number of replacements
system.l2.WritebackDirty_hits::.writebacks         4163                       # number of WritebackDirty hits
system.l2.WritebackDirty_hits::total             4163                       # number of WritebackDirty hits
system.l2.WritebackDirty_accesses::.writebacks         4163                       # number of WritebackDirty accesses(hits+misses)
system.l2.WritebackDirty_accesses::total         4163                       # number of WritebackDirty accesses(hits+misses)
system.l2.WritebackClean_hits::.writebacks          114                       # number of WritebackClean hits
system.l2.WritebackClean_hits::total              114                       # number of WritebackClean hits
system.l2.WritebackClean_accesses::.writebacks          114                       # number of WritebackClean accesses(hits+misses)
system.l2.WritebackClean_accesses::total          114                       # number of WritebackClean accesses(hits+misses)
system.l2.CleanEvict_mshr_misses::.writebacks        13750                       # number of CleanEvict MSHR misses
system.l2.CleanEvict_mshr_misses::total         13750                       # number of CleanEvict MSHR misses
system.l2.CleanEvict_mshr_miss_rate::.writebacks          inf                       # mshr miss rate for CleanEvict accesses
system.l2.CleanEvict_mshr_miss_rate::total          inf                       # mshr miss rate for CleanEvict accesses
system.l2.ReadExReq_hits::.cpu.data               613                       # number of ReadExReq hits
system.l2.ReadExReq_hits::total                   613                       # number of ReadExReq hits
system.l2.ReadExReq_misses::.cpu.data            4205                       # number of ReadExReq misses
system.l2.ReadExReq_misses::total                4205                       # number of ReadExReq misses
system.l2.ReadExReq_miss_latency::.cpu.data    324714500                       # number of ReadExReq miss cycles
system.l2.ReadExReq_miss_latency::total     324714500                       # number of ReadExReq miss cycles
system.l2.ReadExReq_accesses::.cpu.data          4818                       # number of ReadExReq accesses(hits+misses)
system.l2.ReadExReq_accesses::total              4818                       # number of ReadExReq accesses(hits+misses)
system.l2.ReadExReq_miss_rate::.cpu.data     0.872769                       # miss rate for ReadExReq accesses
system.l2.ReadExReq_miss_rate::total         0.872769                       # miss rate for ReadExReq accesses
system.l2.ReadExReq_avg_miss_latency::.cpu.data 77221.046373                       # average ReadExReq miss latency
system.l2.ReadExReq_avg_miss_latency::total 77221.046373                       # average ReadExReq miss latency
system.l2.ReadExReq_mshr_misses::.cpu.data         4205                       # number of ReadExReq MSHR misses
system.l2.ReadExReq_mshr_misses::total           4205                       # number of ReadExReq MSHR misses
system.l2.ReadExReq_mshr_miss_latency::.cpu.data    282664500                       # number of ReadExReq MSHR miss cycles
system.l2.ReadExReq_mshr_miss_latency::total    282664500                       # number of ReadExReq MSHR miss cycles
system.l2.ReadExReq_mshr_miss_rate::.cpu.data     0.872769                       # mshr miss rate for ReadExReq accesses
system.l2.ReadExReq_mshr_miss_rate::total     0.872769                       # mshr miss rate for ReadExReq accesses
system.l2.ReadExReq_avg_mshr_miss_latency::.cpu.data 67221.046373                       # average ReadExReq mshr miss latency
system.l2.ReadExReq_avg_mshr_miss_latency::total 67221.046373                       # average ReadExReq mshr miss latency
system.l2.ReadCleanReq_misses::.cpu.inst         3004                       # number of ReadCleanReq misses
system.l2.ReadCleanReq_misses::total             3004                       # number of ReadCleanReq misses
system.l2.ReadCleanReq_miss_latency::.cpu.inst    229407500                       # number of ReadCleanReq miss cycles
system.l2.ReadCleanReq_miss_latency::total    229407500                       # number of ReadCleanReq miss cycles
system.l2.ReadCleanReq_accesses::.cpu.inst         3004                       # number of ReadCleanReq accesses(hits+misses)
system.l2.ReadCleanReq_accesses::total           3004                       # number of ReadCleanReq accesses(hits+misses)
system.l2.ReadCleanReq_miss_rate::.cpu.inst            1                       # miss rate for ReadCleanReq accesses
system.l2.ReadCleanReq_miss_rate::total             1                       # miss rate for ReadCleanReq accesses
system.l2.ReadCleanReq_avg_miss_latency::.cpu.inst 76367.343542                       # average ReadCleanReq miss latency
system.l2.ReadCleanReq_avg_miss_latency::total 76367.343542                       # average ReadCleanReq miss latency
system.l2.ReadCleanReq_mshr_misses::.cpu.inst         3004                       # number of ReadCleanReq MSHR misses
system.l2.ReadCleanReq_mshr_misses::total         3004                       # number of ReadCleanReq MSHR misses
system.l2.ReadCleanReq_mshr_miss_latency::.cpu.inst    199367500                       # number of ReadCleanReq MSHR miss cycles
system.l2.ReadCleanReq_mshr_miss_latency::total    199367500                       # number of ReadCleanReq MSHR miss cycles
system.l2.ReadCleanReq_mshr_miss_rate::.cpu.inst            1                       # mshr miss rate for ReadCleanReq accesses
system.l2.ReadCleanReq_mshr_miss_rate::total            1                       # mshr miss rate for ReadCleanReq accesses
system.l2.ReadCleanReq_avg_mshr_miss_latency::.cpu.inst 66367.343542                       # average ReadCleanReq mshr miss latency
system.l2.ReadCleanReq_avg_mshr_miss_latency::total 66367.343542                       # average ReadCleanReq mshr miss latency
system.l2.ReadSharedReq_hits::.cpu.data           597                       # number of ReadSharedReq hits
system.l2.ReadSharedReq_hits::total               597                       # number of ReadSharedReq hits
system.l2.ReadSharedReq_misses::.cpu.data        17767                       # number of ReadSharedReq misses
system.l2.ReadSharedReq_misses::total           17767                       # number of ReadSharedReq misses
system.l2.ReadSharedReq_miss_latency::.cpu.data   1439425500                       # number of ReadSharedReq miss cycles
system.l2.ReadSharedReq_miss_latency::total   1439425500                       # number of ReadSharedReq miss cycles
system.l2.ReadSharedReq_accesses::.cpu.data        18364                       # number of ReadSharedReq accesses(hits+misses)
system.l2.ReadSharedReq_accesses::total         18364                       # number of ReadSharedReq accesses(hits+misses)
system.l2.ReadSharedReq_miss_rate::.cpu.data     0.967491                       # miss rate for ReadSharedReq accesses
system.l2.ReadSharedReq_miss_rate::total     0.967491                       # miss rate for ReadSharedReq accesses
system.l2.ReadSharedReq_avg_miss_latency::.cpu.data 81016.800810                       # average ReadSharedReq miss latency
system.l2.ReadSharedReq_avg_miss_latency::total 81016.800810                       # average ReadSharedReq miss latency
system.l2.ReadSharedReq_mshr_misses::.cpu.data        17767                       # number of ReadSharedReq MSHR misses
system.l2.ReadSharedReq_mshr_misses::total        17767                       # number of ReadSharedReq MSHR misses
system.l2.ReadSharedReq_mshr_miss_latency::.cpu.data   1261755500                       # number of ReadSharedReq MSHR miss cycles
system.l2.ReadSharedReq_mshr_miss_latency::total   1261755500                       # number of ReadSharedReq MSHR miss cycles
system.l2.ReadSharedReq_mshr_miss_rate::.cpu.data     0.967491                       # mshr miss rate for ReadSharedReq accesses
system.l2.ReadSharedReq_mshr_miss_rate::total     0.967491                       # mshr miss rate for ReadSharedReq accesses
system.l2.ReadSharedReq_avg_mshr_miss_latency::.cpu.data 71016.800810                       # average ReadSharedReq mshr miss latency
system.l2.ReadSharedReq_avg_mshr_miss_latency::total 71016.800810                       # average ReadSharedReq mshr miss latency
system.l2.power_state.pwrStateResidencyTicks::UNDEFINED 187796909500                       # Cumulative time (in ticks) in various power states
system.l2.tags.tagsinuse                  4088.707336                       # Cycle average of tags in use
system.l2.tags.total_refs                       31636                       # Total number of references to valid blocks.
system.l2.tags.sampled_refs                     28974                       # Sample count of references to valid blocks.
system.l2.tags.avg_refs                      1.091875                       # Average number of references to valid blocks.
system.l2.tags.warmup_cycle                     77000                       # Cycle when the warmup percentage was hit.
system.l2.tags.occ_blocks::.writebacks     398.891180                       # Average occupied blocks per requestor
system.l2.tags.occ_blocks::.cpu.inst      1018.035264                       # Average occupied blocks per requestor
system.l2.tags.occ_blocks::.cpu.data      2671.780891                       # Average occupied blocks per requestor
system.l2.tags.occ_percent::.writebacks      0.097386                       # Average percentage of cache occupancy
system.l2.tags.occ_percent::.cpu.inst        0.248544                       # Average percentage of cache occupancy
system.l2.tags.occ_percent::.cpu.data        0.652290                       # Average percentage of cache occupancy
system.l2.tags.occ_percent::total            0.998220                       # Average percentage of cache occupancy
system.l2.tags.occ_task_id_blocks::1024          4096                       # Occupied blocks per task id
system.l2.tags.age_task_id_blocks_1024::1            2                       # Occupied blocks per task id
system.l2.tags.age_task_id_blocks_1024::4         4094                       # Occupied blocks per task id
system.l2.tags.occ_task_id_percent::1024            1                       # Percentage of cache occupancy per task id
system.l2.tags.tag_accesses                    119746                       # Number of tag accesses
system.l2.tags.data_accesses                   119746                       # Number of data accesses
system.l2.tags.power_state.pwrStateResidencyTicks::UNDEFINED 187796909500                       # Cumulative time (in ticks) in various power states
system.mem_ctrls.avgPriority_.writebacks::samples      2524.00                       # Average QoS priority value for accepted requests
system.mem_ctrls.avgPriority_.cpu.inst::samples      3004.00                       # Average QoS priority value for accepted requests
system.mem_ctrls.avgPriority_.cpu.data::samples     21949.00                       # Average QoS priority value for accepted requests
system.mem_ctrls.priorityMinLatency      0.000000018750                       # per QoS priority minimum request to response latency (s)
system.mem_ctrls.priorityMaxLatency      0.001063981750                       # per QoS priority maximum request to response latency (s)
system.mem_ctrls.numReadWriteTurnArounds          145                       # Number of turnarounds from READ to WRITE
system.mem_ctrls.numWriteReadTurnArounds          145                       # Number of turnarounds from WRITE to READ
system.mem_ctrls.numStayReadState              100911                       # Number of times bus staying in READ state
system.mem_ctrls.numStayWriteState               2347                       # Number of times bus staying in WRITE state
system.mem_ctrls.readReqs                       24976                       # Number of read requests accepted
system.mem_ctrls.writeReqs                       2837                       # Number of write requests accepted
system.mem_ctrls.readBursts                     24976                       # Number of controller read bursts, including those serviced by the write queue
system.mem_ctrls.writeBursts                     2837                       # Number of controller write bursts, including those merged in the write queue
system.mem_ctrls.servicedByWrQ                     23                       # Number of controller read bursts serviced by the write queue
system.mem_ctrls.mergedWrBursts                   313                       # Number of controller write bursts merged with an existing one
system.mem_ctrls.neitherReadNorWriteReqs            0                       # Number of requests that are neither read nor write
system.mem_ctrls.avgRdQLen                       1.00                       # Average read queue length when enqueuing
system.mem_ctrls.avgWrQLen                      31.71                       # Average write queue length when enqueuing
system.mem_ctrls.numRdRetry                         0                       # Number of times read queue was full causing retry
system.mem_ctrls.numWrRetry                         0                       # Number of times write queue was full causing retry
system.mem_ctrls.readPktSize::0                     0                       # Read request sizes (log2)
system.mem_ctrls.readPktSize::1                     0                       # Read request sizes (log2)
system.mem_ctrls.readPktSize::2                     0                       # Read request sizes (log2)
system.mem_ctrls.readPktSize::3                     0                       # Read request sizes (log2)
system.mem_ctrls.readPktSize::4                     0                       # Read request sizes (log2)
system.mem_ctrls.readPktSize::5                 24976                       # Read request sizes (log2)
system.mem_ctrls.writePktSize::0                    0                       # Write request sizes (log2)
system.mem_ctrls.writePktSize::1                    0                       # Write request sizes (log2)
system.mem_ctrls.writePktSize::2                    0                       # Write request sizes (log2)
system.mem_ctrls.writePktSize::3                    0                       # Write request sizes (log2)
system.mem_ctrls.writePktSize::4                    0                       # Write request sizes (log2)
system.mem_ctrls.writePktSize::5                 2837                       # Write request sizes (log2)
system.mem_ctrls.rdQLenPdf::0                   24945                       # What read queue length does an incoming req see
system.mem_ctrls.rdQLenPdf::1                       8                       # What read queue length does an incoming req see
system.mem_ctrls.rdQLenPdf::2                       0                       # What read queue length does an incoming req see
system.mem_ctrls.rdQLenPdf::3                       0                       # What read queue length does an incoming req see
system.mem_ctrls.rdQLenPdf::4                       0                       # What read queue length does an incoming req see
system.mem_ctrls.rdQLenPdf::5                       0                       # What read queue length does an incoming req see
system.mem_ctrls.rdQLenPdf::6                       0                       # What read queue length does an incoming req see
system.mem_ctrls.rdQLenPdf::7                       0                       # What read queue length does an incoming req see
system.mem_ctrls.rdQLenPdf::8                       0                       # What read queue length does an incoming req see
system.mem_ctrls.rdQLenPdf::9                       0                       # What read queue length does an incoming req see
system.mem_ctrls.rdQLenPdf::10                      0                       # What read queue length does an incoming req see
system.mem_ctrls.rdQLenPdf::11                      0                       # What read queue length does an incoming req see
system.mem_ctrls.rdQLenPdf::12                      0                       # What read queue length does an incoming req see
system.mem_ctrls.rdQLenPdf::13                      0                       # What read queue length does an incoming req see
system.mem_ctrls.rdQLenPdf::14                      0                       # What read queue length does an incoming req see
system.mem_ctrls.rdQLenPdf::15                      0                       # What read queue length does an incoming req see
system.mem_ctrls.rdQLenPdf::16                      0                       # What read queue length does an incoming req see
system.mem_ctrls.rdQLenPdf::17                      0                       # What read queue length does an incoming req see
system.mem_ctrls.rdQLenPdf::18                      0                       # What read queue length does an incoming req see
system.mem_ctrls.rdQLenPdf::19                      0                       # What read queue length does an incoming req see
system.mem_ctrls.rdQLenPdf::20                      0                       # What read queue length does an incoming req see
system.mem_ctrls.rdQLenPdf::21                      0                       # What read queue length does an incoming req see
system.mem_ctrls.rdQLenPdf::22                      0                       # What read queue length does an incoming req see
system.mem_ctrls.rdQLenPdf::23                      0                       # What read queue length does an incoming req see
system.mem_ctrls.rdQLenPdf::24                      0                       # What read queue length does an incoming req see
system.mem_ctrls.rdQLenPdf::25                      0                       # What read queue length does an incoming req see
system.mem_ctrls.rdQLenPdf::26                      0                       # What read queue length does an incoming req see
system.mem_ctrls.rdQLenPdf::27                      0                       # What read queue length does an incoming req see
system.mem_ctrls.rdQLenPdf::28                      0                       # What read queue length does an incoming req see
system.mem_ctrls.rdQLenPdf::29                      0                       # What read queue length does an incoming req see
system.mem_ctrls.rdQLenPdf::30                      0                       # What read queue length does an incoming req see
system.mem_ctrls.rdQLenPdf::31                      0                       # What read queue length does an incoming req see
system.mem_ctrls.wrQLenPdf::0                       1                       # What write queue length does an incoming req see
system.mem_ctrls.wrQLenPdf::1                       1                       # What write queue length does an incoming req see
system.mem_ctrls.wrQLenPdf::2                       1                       # What write queue length does an incoming req see
system.mem_ctrls.wrQLenPdf::3                       1                       # What write queue length does an incoming req see
system.mem_ctrls.wrQLenPdf::4                       1                       # What write queue length does an incoming req see
system.mem_ctrls.wrQLenPdf::5                       1                       # What write queue length does an incoming req see
system.mem_ctrls.wrQLenPdf::6                       1                       # What write queue length does an incoming req see
system.mem_ctrls.wrQLenPdf::7                       1                       # What write queue length does an incoming req see
system.mem_ctrls.wrQLenPdf::8                       1                       # What write queue length does an incoming req see
system.mem_ctrls.wrQLenPdf::9                       1                       # What write queue length does an incoming req see
system.mem_ctrls.wrQLenPdf::10                      1                       # What write queue length does an incoming req see
system.mem_ctrls.wrQLenPdf::11                      1                       # What write queue length does an incoming req see
system.mem_ctrls.wrQLenPdf::12                      1                       # What write queue length does an incoming req see
system.mem_ctrls.wrQLenPdf::13                      1                       # What write queue length does an incoming req see
system.mem_ctrls.wrQLenPdf::14                      1                       # What write queue length does an incoming req see
system.mem_ctrls.wrQLenPdf::15                     85                       # What write queue length does an incoming req see
system.mem_ctrls.wrQLenPdf::16                     89                       # What write queue length does an incoming req see
system.mem_ctrls.wrQLenPdf::17                    146                       # What write queue length does an incoming req see
system.mem_ctrls.wrQLenPdf::18                    146                       # What write queue length does an incoming req see
system.mem_ctrls.wrQLenPdf::19                    146                       # What write queue length does an incoming req see
system.mem_ctrls.wrQLenPdf::20                    146                       # What write queue length does an incoming req see
system.mem_ctrls.wrQLenPdf::21                    146                       # What write queue length does an incoming req see
system.mem_ctrls.wrQLenPdf::22                    146                       # What write queue length does an incoming req see
system.mem_ctrls.wrQLenPdf::23                    146                       # What write queue length does an incoming req see
system.mem_ctrls.wrQLenPdf::24                    146                       # What write queue length does an incoming req see
system.mem_ctrls.wrQLenPdf::25                    146                       # What write queue length does an incoming req see
system.mem_ctrls.wrQLenPdf::26                    146                       # What write queue length does an incoming req see
system.mem_ctrls.wrQLenPdf::27                    146                       # What write queue length does an incoming req see
system.mem_ctrls.wrQLenPdf::28                    146                       # What write queue length does an incoming req see
system.mem_ctrls.wrQLenPdf::29                    146                       # What write queue length does an incoming req see
system.mem_ctrls.wrQLenPdf::30                    146                       # What write queue length does an incoming req see
system.mem_ctrls.wrQLenPdf::31                    146                       # What write queue length does an incoming req see
system.mem_ctrls.wrQLenPdf::32                    145                       # What write queue length does an incoming req see
system.mem_ctrls.wrQLenPdf::33                      0                       # What write queue length does an incoming req see
system.mem_ctrls.wrQLenPdf::34                      0                       # What write queue length does an incoming req see
system.mem_ctrls.wrQLenPdf::35                      0                       # What write queue length does an incoming req see
system.mem_ctrls.wrQLenPdf::36                      0                       # What write queue length does an incoming req see
system.mem_ctrls.wrQLenPdf::37                      0                       # What write queue length does an incoming req see
system.mem_ctrls.wrQLenPdf::38                      0                       # What write queue length does an incoming req see
system.mem_ctrls.wrQLenPdf::39                      0                       # What write queue length does an incoming req see
system.mem_ctrls.wrQLenPdf::40                      0                       # What write queue length does an incoming req see
system.mem_ctrls.wrQLenPdf::41                      0                       # What write queue length does an incoming req see
system.mem_ctrls.wrQLenPdf::42                      0                       # What write queue length does an incoming req see
system.mem_ctrls.wrQLenPdf::43                      0                       # What write queue length does an incoming req see
system.mem_ctrls.wrQLenPdf::44                      0                       # What write queue length does an incoming req see
system.mem_ctrls.wrQLenPdf::45                      0                       # What write queue length does an incoming req see
system.mem_ctrls.wrQLenPdf::46                      0                       # What write queue length does an incoming req see
system.mem_ctrls.wrQLenPdf::47                      0                       # What write queue length does an incoming req see
system.mem_ctrls.wrQLenPdf::48                      0                       # What write queue length does an incoming req see
system.mem_ctrls.wrQLenPdf::49                      0                       # What write queue length does an incoming req see
system.mem_ctrls.wrQLenPdf::50                      0                       # What write queue length does an incoming req see
system.mem_ctrls.wrQLenPdf::51                      0                       # What write queue length does an incoming req see
system.mem_ctrls.wrQLenPdf::52                      0                       # What write queue length does an incoming req see
system.mem_ctrls.wrQLenPdf::53                      0                       # What write queue length does an incoming req see
system.mem_ctrls.wrQLenPdf::54                      0                       # What write queue length does an incoming req see
system.mem_ctrls.wrQLenPdf::55                      0                       # What write queue length does an incoming req see
system.mem_ctrls.wrQLenPdf::56                      0                       # What write queue length does an incoming req see
system.mem_ctrls.wrQLenPdf::57                      0                       # What write queue length does an incoming req see
system.mem_ctrls.wrQLenPdf::58                      0                       # What write queue length does an incoming req see
system.mem_ctrls.wrQLenPdf::59                      0                       # What write queue length does an incoming req see
system.mem_ctrls.wrQLenPdf::60                      0                       # What write queue length does an incoming req see
system.mem_ctrls.wrQLenPdf::61                      0                       # What write queue length does an incoming req see
system.mem_ctrls.wrQLenPdf::62                      0                       # What write queue length does an incoming req see
system.mem_ctrls.wrQLenPdf::63                      0                       # What write queue length does an incoming req see
system.mem_ctrls.rdPerTurnAround::samples          145                       # Reads before turning the bus around for writes
system.mem_ctrls.rdPerTurnAround::mean     168.220690                       # Reads before turning the bus around for writes
system.mem_ctrls.rdPerTurnAround::gmean    124.325475                       # Reads before turning the bus around for writes
system.mem_ctrls.rdPerTurnAround::stdev    339.870308                       # Reads before turning the bus around for writes
system.mem_ctrls.rdPerTurnAround::0-127            78     53.79%     53.79% # Reads before turning the bus around for writes
system.mem_ctrls.rdPerTurnAround::128-255           57     39.31%     93.10% # Reads before turning the bus around for writes
system.mem_ctrls.rdPerTurnAround::256-383            5      3.45%     96.55% # Reads before turning the bus around for writes
system.mem_ctrls.rdPerTurnAround::384-511            3      2.07%     98.62% # Reads before turning the bus around for writes
system.mem_ctrls.rdPerTurnAround::768-895            1      0.69%     99.31% # Reads before turning the bus around for writes
system.mem_ctrls.rdPerTurnAround::3968-4095            1      0.69%    100.00% # Reads before turning the bus around for writes
system.mem_ctrls.rdPerTurnAround::total           145                       # Reads before turning the bus around for writes
system.mem_ctrls.wrPerTurnAround::samples          145                       # Writes before turning the bus around for reads
system.mem_ctrls.wrPerTurnAround::mean      17.186207                       # Writes before turning the bus around for reads
system.mem_ctrls.wrPerTurnAround::gmean     17.158507                       # Writes before turning the bus around for reads
system.mem_ctrls.wrPerTurnAround::stdev      0.971727                       # Writes before turning the bus around for reads
system.mem_ctrls.wrPerTurnAround::16               57     39.31%     39.31% # Writes before turning the bus around for reads
system.mem_ctrls.wrPerTurnAround::17                4      2.76%     42.07% # Writes before turning the bus around for reads
system.mem_ctrls.wrPerTurnAround::18               84     57.93%    100.00% # Writes before turning the bus around for reads
system.mem_ctrls.wrPerTurnAround::total           145                       # Writes before turning the bus around for reads
system.mem_ctrls.bytesReadWrQ                    1472                       # Total number of bytes read from write queue
system.mem_ctrls.bytesReadSys                  799232                       # Total read bytes from the system interface side
system.mem_ctrls.bytesWrittenSys                90784                       # Total written bytes from the system interface side
system.mem_ctrls.avgRdBWSys                      4.26                       # Average system read bandwidth in MiByte/s
system.mem_ctrls.avgWrBWSys                      0.48                       # Average system write bandwidth in MiByte/s
system.mem_ctrls.totGap                  187705957500                       # Total gap between requests
system.mem_ctrls.avgGap                    6748856.92                       # Average gap between requests
system.mem_ctrls.requestorReadBytes::.cpu.inst        96128                       # Per-requestor bytes read from memory
system.mem_ctrls.requestorReadBytes::.cpu.data       702368                       # Per-requestor bytes read from memory
system.mem_ctrls.requestorWriteBytes::.writebacks        79744                       # Per-requestor bytes write to memory
system.mem_ctrls.requestorReadRate::.cpu.inst 511872.108310706797                       # Per-requestor bytes read from memory rate (Bytes/sec)
system.mem_ctrls.requestorReadRate::.cpu.data 3740040.248106426094                       # Per-requestor bytes read from memory rate (Bytes/sec)
system.mem_ctrls.requestorWriteRate::.writebacks 424628.926068668894                       # Per-requestor bytes write to memory rate (Bytes/sec)
system.mem_ctrls.requestorReadAccesses::.cpu.inst         3004                       # Per-requestor read serviced memory accesses
system.mem_ctrls.requestorReadAccesses::.cpu.data        21972                       # Per-requestor read serviced memory accesses
system.mem_ctrls.requestorWriteAccesses::.writebacks         2837                       # Per-requestor write serviced memory accesses
system.mem_ctrls.requestorReadTotalLat::.cpu.inst     76755500                       # Per-requestor read total memory access latency
system.mem_ctrls.requestorReadTotalLat::.cpu.data    646584250                       # Per-requestor read total memory access latency
[...]
system.mem_ctrls.dram.bw_total::.cpu.data      3743959                       # Total bandwidth to/from this memory (bytes/s)
system.mem_ctrls.dram.bw_total::total         4739247                       # Total bandwidth to/from this memory (bytes/s)
system.mem_ctrls.dram.readBursts                24953                       # Number of DRAM read bursts
system.mem_ctrls.dram.writeBursts                2492                       # Number of DRAM write bursts
system.mem_ctrls.dram.perBankRdBursts::0         1601                       # Per bank write bursts
system.mem_ctrls.dram.perBankRdBursts::1         1521                       # Per bank write bursts
system.mem_ctrls.dram.perBankRdBursts::2         2067                       # Per bank write bursts
system.mem_ctrls.dram.perBankRdBursts::3         1509                       # Per bank write bursts
system.mem_ctrls.dram.perBankRdBursts::4         2159                       # Per bank write bursts
system.mem_ctrls.dram.perBankRdBursts::5         1797                       # Per bank write bursts
system.mem_ctrls.dram.perBankRdBursts::6         1777                       # Per bank write bursts
system.mem_ctrls.dram.perBankRdBursts::7         1119                       # Per bank write bursts
system.mem_ctrls.dram.perBankRdBursts::8         1212                       # Per bank write bursts
system.mem_ctrls.dram.perBankRdBursts::9         1516                       # Per bank write bursts
system.mem_ctrls.dram.perBankRdBursts::10         1431                       # Per bank write bursts
system.mem_ctrls.dram.perBankRdBursts::11         1678                       # Per bank write bursts
system.mem_ctrls.dram.perBankRdBursts::12         1980                       # Per bank write bursts
system.mem_ctrls.dram.perBankRdBursts::13         1504                       # Per bank write bursts
system.mem_ctrls.dram.perBankRdBursts::14         1076                       # Per bank write bursts
system.mem_ctrls.dram.perBankRdBursts::15         1006                       # Per bank write bursts
system.mem_ctrls.dram.perBankWrBursts::0            0                       # Per bank write bursts
system.mem_ctrls.dram.perBankWrBursts::1          309                       # Per bank write bursts
system.mem_ctrls.dram.perBankWrBursts::2          262                       # Per bank write bursts
system.mem_ctrls.dram.perBankWrBursts::3            1                       # Per bank write bursts
system.mem_ctrls.dram.perBankWrBursts::4          277                       # Per bank write bursts
system.mem_ctrls.dram.perBankWrBursts::5          142                       # Per bank write bursts
system.mem_ctrls.dram.perBankWrBursts::6          196                       # Per bank write bursts
system.mem_ctrls.dram.perBankWrBursts::7          100                       # Per bank write bursts
system.mem_ctrls.dram.perBankWrBursts::8          110                       # Per bank write bursts
system.mem_ctrls.dram.perBankWrBursts::9          412                       # Per bank write bursts
system.mem_ctrls.dram.perBankWrBursts::10          300                       # Per bank write bursts
system.mem_ctrls.dram.perBankWrBursts::11          168                       # Per bank write bursts
system.mem_ctrls.dram.perBankWrBursts::12          175                       # Per bank write bursts
system.mem_ctrls.dram.perBankWrBursts::13           40                       # Per bank write bursts
system.mem_ctrls.dram.perBankWrBursts::14            0                       # Per bank write bursts
system.mem_ctrls.dram.perBankWrBursts::15            0                       # Per bank write bursts
system.mem_ctrls.dram.totQLat               255471000                       # Total ticks spent queuing
system.mem_ctrls.dram.totBusLat             124765000                       # Total ticks spent in databus transfers
system.mem_ctrls.dram.totMemAccLat          723339750                       # Total ticks spent from burst creation until serviced by the DRAM
system.mem_ctrls.dram.avgQLat                10238.09                       # Average queueing delay per DRAM burst
system.mem_ctrls.dram.avgBusLat               5000.00                       # Average bus latency per DRAM burst
system.mem_ctrls.dram.avgMemAccLat           28988.09                       # Average memory access latency per DRAM burst
system.mem_ctrls.dram.readRowHits               16002                       # Number of row buffer hits during reads
system.mem_ctrls.dram.writeRowHits               1825                       # Number of row buffer hits during writes
system.mem_ctrls.dram.readRowHitRate            64.13                       # Row buffer hit rate for reads
system.mem_ctrls.dram.writeRowHitRate           73.23                       # Row buffer hit rate for writes
system.mem_ctrls.dram.bytesPerActivate::samples         9618                       # Bytes accessed per row activation
system.mem_ctrls.dram.bytesPerActivate::mean   182.624246                       # Bytes accessed per row activation
system.mem_ctrls.dram.bytesPerActivate::gmean   118.418755                       # Bytes accessed per row activation
system.mem_ctrls.dram.bytesPerActivate::stdev   227.595522                       # Bytes accessed per row activation
system.mem_ctrls.dram.bytesPerActivate::0-127         5194     54.00%     54.00% # Bytes accessed per row activation
system.mem_ctrls.dram.bytesPerActivate::128-255         2550     26.51%     80.52% # Bytes accessed per row activation
system.mem_ctrls.dram.bytesPerActivate::256-383          653      6.79%     87.31% # Bytes accessed per row activation
system.mem_ctrls.dram.bytesPerActivate::384-511          359      3.73%     91.04% # Bytes accessed per row activation
system.mem_ctrls.dram.bytesPerActivate::512-639          215      2.24%     93.27% # Bytes accessed per row activation
system.mem_ctrls.dram.bytesPerActivate::640-767          119      1.24%     94.51% # Bytes accessed per row activation
system.mem_ctrls.dram.bytesPerActivate::768-895           78      0.81%     95.32% # Bytes accessed per row activation
system.mem_ctrls.dram.bytesPerActivate::896-1023           63      0.66%     95.98% # Bytes accessed per row activation
system.mem_ctrls.dram.bytesPerActivate::1024-1151          387      4.02%    100.00% # Bytes accessed per row activation
system.mem_ctrls.dram.bytesPerActivate::total         9618                       # Bytes accessed per row activation
system.mem_ctrls.dram.bytesRead               1596992                       # Total number of bytes read from DRAM
system.mem_ctrls.dram.bytesWritten             159488                       # Total number of bytes written to DRAM
system.mem_ctrls.dram.avgRdBW                8.503825                       # Average DRAM read bandwidth in MiBytes/s
system.mem_ctrls.dram.avgWrBW                0.849258                       # Average DRAM write bandwidth in MiBytes/s
system.mem_ctrls.dram.peakBW                 12800.00                       # Theoretical peak bandwidth in MiByte/s
system.mem_ctrls.dram.busUtil                    0.07                       # Data bus utilization in percentage
system.mem_ctrls.dram.busUtilRead                0.07                       # Data bus utilization in percentage for reads
system.mem_ctrls.dram.busUtilWrite               0.01                       # Data bus utilization in percentage for writes
system.mem_ctrls.dram.pageHitRate               64.96                       # Row buffer hit rate, read and write combined
system.mem_ctrls.dram.power_state.pwrStateResidencyTicks::UNDEFINED 187796909500                       # Cumulative time (in ticks) in various power states
system.mem_ctrls.dram.rank0.actEnergy        36628200                       # Energy for activate commands per rank (pJ)
system.mem_ctrls.dram.rank0.preEnergy        19468350                       # Energy for precharge commands per rank (pJ)
system.mem_ctrls.dram.rank0.readEnergy       96747000                       # Energy for read commands per rank (pJ)
system.mem_ctrls.dram.rank0.writeEnergy       6718140                       # Energy for write commands per rank (pJ)
system.mem_ctrls.dram.rank0.refreshEnergy 14824502160.000002                       # Energy for refresh commands per rank (pJ)
system.mem_ctrls.dram.rank0.actBackEnergy   5414814180                       # Energy for active background per rank (pJ)
system.mem_ctrls.dram.rank0.preBackEnergy  67554169920                       # Energy for precharge background per rank (pJ)
system.mem_ctrls.dram.rank0.actPowerDownEnergy            0                       # Energy for active power-down per rank (pJ)
system.mem_ctrls.dram.rank0.prePowerDownEnergy            0                       # Energy for precharge power-down per rank (pJ)
system.mem_ctrls.dram.rank0.selfRefreshEnergy            0                       # Energy for self refresh per rank (pJ)
system.mem_ctrls.dram.rank0.totalEnergy   87953047950                       # Total energy per rank (pJ)
system.mem_ctrls.dram.rank0.averagePower   468.341296                       # Core power per rank (mW)
system.mem_ctrls.dram.rank0.totalIdleTime            0                       # Total Idle time Per DRAM Rank
system.mem_ctrls.dram.rank0.pwrStateTime::IDLE 175572845500                       # Time in different power states
system.mem_ctrls.dram.rank0.pwrStateTime::REF   6270940000                       # Time in different power states
system.mem_ctrls.dram.rank0.pwrStateTime::SREF            0                       # Time in different power states
system.mem_ctrls.dram.rank0.pwrStateTime::PRE_PDN            0                       # Time in different power states
system.mem_ctrls.dram.rank0.pwrStateTime::ACT   5953124000                       # Time in different power states
system.mem_ctrls.dram.rank0.pwrStateTime::ACT_PDN            0                       # Time in different power states
system.mem_ctrls.dram.rank1.actEnergy        32044320                       # Energy for activate commands per rank (pJ)
system.mem_ctrls.dram.rank1.preEnergy        17031960                       # Energy for precharge commands per rank (pJ)
system.mem_ctrls.dram.rank1.readEnergy       81417420                       # Energy for read commands per rank (pJ)
system.mem_ctrls.dram.rank1.writeEnergy       6290100                       # Energy for write commands per rank (pJ)
system.mem_ctrls.dram.rank1.refreshEnergy 14824502160.000002                       # Energy for refresh commands per rank (pJ)
system.mem_ctrls.dram.rank1.actBackEnergy   4975241580                       # Energy for active background per rank (pJ)
system.mem_ctrls.dram.rank1.preBackEnergy  67924336320                       # Energy for precharge background per rank (pJ)
system.mem_ctrls.dram.rank1.actPowerDownEnergy            0                       # Energy for active power-down per rank (pJ)
system.mem_ctrls.dram.rank1.prePowerDownEnergy            0                       # Energy for precharge power-down per rank (pJ)
system.mem_ctrls.dram.rank1.selfRefreshEnergy            0                       # Energy for self refresh per rank (pJ)
system.mem_ctrls.dram.rank1.totalEnergy   87860863860                       # Total energy per rank (pJ)
system.mem_ctrls.dram.rank1.averagePower   467.850425                       # Core power per rank (mW)
system.mem_ctrls.dram.rank1.totalIdleTime            0                       # Total Idle time Per DRAM Rank
system.mem_ctrls.dram.rank1.pwrStateTime::IDLE 176542425000                       # Time in different power states
system.mem_ctrls.dram.rank1.pwrStateTime::REF   6270940000                       # Time in different power states
system.mem_ctrls.dram.rank1.pwrStateTime::SREF            0                       # Time in different power states
system.mem_ctrls.dram.rank1.pwrStateTime::PRE_PDN            0                       # Time in different power states
system.mem_ctrls.dram.rank1.pwrStateTime::ACT   4983544500                       # Time in different power states
system.mem_ctrls.dram.rank1.pwrStateTime::ACT_PDN            0                       # Time in different power states
system.mem_ctrls.power_state.pwrStateResidencyTicks::UNDEFINED 187796909500                       # Cumulative time (in ticks) in various power states
system.membus.trans_dist::ReadResp              20771                       # Transaction distribution
system.membus.trans_dist::WritebackDirty         2837                       # Transaction distribution
system.membus.trans_dist::CleanEvict            14703                       # Transaction distribution
system.membus.trans_dist::ReadExReq              4205                       # Transaction distribution
system.membus.trans_dist::ReadExResp             4205                       # Transaction distribution
system.membus.trans_dist::ReadSharedReq         20771                       # Transaction distribution
system.membus.pkt_count_system.l2.mem_side_port::system.mem_ctrls.port        67492                       # Packet count per connected requestor and responder (bytes)
system.membus.pkt_count_system.l2.mem_side_port::total        67492                       # Packet count per connected requestor and responder (bytes)
system.membus.pkt_count::total                  67492                       # Packet count per connected requestor and responder (bytes)
system.membus.pkt_size_system.l2.mem_side_port::system.mem_ctrls.port       890016                       # Cumulative packet size per connected requestor and responder (bytes)
system.membus.pkt_size_system.l2.mem_side_port::total       890016                       # Cumulative packet size per connected requestor and responder (bytes)
system.membus.pkt_size::total                  890016                       # Cumulative packet size per connected requestor and responder (bytes)
system.membus.snoops                                0                       # Total snoops (count)
system.membus.snoopTraffic                          0                       # Total snoop traffic (bytes)
system.membus.snoop_fanout::samples             24976                       # Request fanout histogram
system.membus.snoop_fanout::mean                    0                       # Request fanout histogram
system.membus.snoop_fanout::stdev                   0                       # Request fanout histogram
system.membus.snoop_fanout::underflows              0      0.00%      0.00% # Request fanout histogram
system.membus.snoop_fanout::0                   24976    100.00%    100.00% # Request fanout histogram
system.membus.snoop_fanout::1                       0      0.00%    100.00% # Request fanout histogram
system.membus.snoop_fanout::overflows               0      0.00%    100.00% # Request fanout histogram
system.membus.snoop_fanout::min_value               0                       # Request fanout histogram
system.membus.snoop_fanout::max_value               0                       # Request fanout histogram
system.membus.snoop_fanout::total               24976                       # Request fanout histogram
system.membus.power_state.pwrStateResidencyTicks::UNDEFINED 187796909500                       # Cumulative time (in ticks) in various power states
system.membus.reqLayer2.occupancy            48212000                       # Layer occupancy (ticks)
system.membus.reqLayer2.utilization               0.0                       # Layer utilization (%)
system.membus.respLayer1.occupancy           84041250                       # Layer occupancy (ticks)
system.membus.respLayer1.utilization              0.0                       # Layer utilization (%)
system.tol2bus.trans_dist::ReadResp             21368                       # Transaction distribution
system.tol2bus.trans_dist::WritebackDirty         7000                       # Transaction distribution
system.tol2bus.trans_dist::WritebackClean          114                       # Transaction distribution
system.tol2bus.trans_dist::CleanEvict           36964                       # Transaction distribution
system.tol2bus.trans_dist::ReadExReq             4818                       # Transaction distribution
system.tol2bus.trans_dist::ReadExResp            4818                       # Transaction distribution
system.tol2bus.trans_dist::ReadCleanReq          3004                       # Transaction distribution
system.tol2bus.trans_dist::ReadSharedReq        18364                       # Transaction distribution
system.tol2bus.pkt_count_system.cpu.icache.mem_side_port::system.l2.cpu_side_port         6122                       # Packet count per connected requestor and responder (bytes)
system.tol2bus.pkt_count_system.cpu.dcache.mem_side_port::system.l2.cpu_side_port        65450                       # Packet count per connected requestor and responder (bytes)
system.tol2bus.pkt_count::total                 71572                       # Packet count per connected requestor and responder (bytes)
system.tol2bus.pkt_size_system.cpu.icache.mem_side_port::system.l2.cpu_side_port        99776                       # Cumulative packet size per connected requestor and responder (bytes)
system.tol2bus.pkt_size_system.cpu.dcache.mem_side_port::system.l2.cpu_side_port       875040                       # Cumulative packet size per connected requestor and responder (bytes)
system.tol2bus.pkt_size::total                 974816                       # Cumulative packet size per connected requestor and responder (bytes)
system.tol2bus.snoops                           24878                       # Total snoops (count)
system.tol2bus.snoopTraffic                     90784                       # Total snoop traffic (bytes)
system.tol2bus.snoop_fanout::samples            51064                       # Request fanout histogram
system.tol2bus.snoop_fanout::mean            0.412972                       # Request fanout histogram
system.tol2bus.snoop_fanout::stdev           0.492373                       # Request fanout histogram
system.tol2bus.snoop_fanout::underflows             0      0.00%      0.00% # Request fanout histogram
system.tol2bus.snoop_fanout::0                  29976     58.70%     58.70% # Request fanout histogram
system.tol2bus.snoop_fanout::1                  21088     41.30%    100.00% # Request fanout histogram
system.tol2bus.snoop_fanout::2                      0      0.00%    100.00% # Request fanout histogram
system.tol2bus.snoop_fanout::3                      0      0.00%    100.00% # Request fanout histogram
system.tol2bus.snoop_fanout::4                      0      0.00%    100.00% # Request fanout histogram
system.tol2bus.snoop_fanout::overflows              0      0.00%    100.00% # Request fanout histogram
system.tol2bus.snoop_fanout::min_value              0                       # Request fanout histogram
system.tol2bus.snoop_fanout::max_value              1                       # Request fanout histogram
system.tol2bus.snoop_fanout::total              51064                       # Request fanout histogram
system.tol2bus.power_state.pwrStateResidencyTicks::UNDEFINED 187796909500                       # Cumulative time (in ticks) in various power states
system.tol2bus.reqLayer0.occupancy           24831500                       # Layer occupancy (ticks)
system.tol2bus.reqLayer0.utilization              0.0                       # Layer utilization (%)
system.tol2bus.respLayer0.occupancy           3004000                       # Layer occupancy (ticks)
system.tol2bus.respLayer0.utilization             0.0                       # Layer utilization (%)
system.tol2bus.respLayer1.occupancy          23182000                       # Layer occupancy (ticks)
system.tol2bus.respLayer1.utilization             0.0                       # Layer utilization (%)
system.voltage_domain.voltage                       1                       # Voltage in Volts

---------- End Simulation Statistics   ----------
