
---------- Begin Simulation Statistics ----------
final_tick                               137373794500                       # Number of ticks from beginning of simulation (restored from checkpoints and never reset)
host_inst_rate                                 381636                       # Simulator instruction rate (inst/s)
host_mem_usage                                 727112                       # Number of bytes of host memory used
host_op_rate                                   583802                       # Simulator op (including micro ops) rate (op/s)
host_seconds                                   166.22                       # Real time elapsed on the host
host_tick_rate                              826447511                       # Simulator tick rate (ticks/s)
sim_freq                                 1000000000000                       # Frequency of simulated ticks
sim_insts                                    63436164                       # Number of instructions simulated
sim_ops                                      97040800                       # Number of ops (including micro ops) simulated
sim_seconds                                  0.137374                       # Number of seconds simulated
sim_ticks                                137373794500                       # Number of ticks simulated
system.cpu.BranchMispred                        46195                       # Number of branch mispredictions
system.cpu.Branches                           7714197                       # Number of branches fetched
system.cpu.committedInsts                    63436164                       # Number of instructions committed
system.cpu.committedOps                      97040800                       # Number of ops (including micro ops) committed
system.cpu.idle_fraction                     0.000000                       # Percentage of idle cycles
system.cpu.not_idle_fraction                 1.000000                       # Percentage of non-idle cycles
system.cpu.numCycles                        274747589                       # number of cpu cycles simulated
system.cpu.numWorkItemsCompleted                    0                       # number of work items this cpu completed
system.cpu.numWorkItemsStarted                      0                       # number of work items this cpu started
system.cpu.num_busy_cycles               274747588.998000                       # Number of busy cycles
system.cpu.num_cc_register_reads             29901167                       # number of times the CC registers were read
system.cpu.num_cc_register_writes            27167791                       # number of times the CC registers were written
system.cpu.num_conditional_control_insts      4234589                       # number of instructions that are conditional controls
system.cpu.num_fp_alu_accesses                  85206                       # Number of float alu accesses
system.cpu.num_fp_insts                         85206                       # number of float instructions
system.cpu.num_fp_register_reads               119500                       # number of times the floating registers were read
system.cpu.num_fp_register_writes               63458                       # number of times the floating registers were written
system.cpu.num_func_calls                     1924146                       # number of times a function call or return occured
system.cpu.num_idle_cycles                   0.002000                       # Number of idle cycles
system.cpu.num_int_alu_accesses              95087258                       # Number of integer alu accesses
system.cpu.num_int_insts                     95087258                       # number of integer instructions
system.cpu.num_int_register_reads           214304654                       # number of times the integer registers were read
system.cpu.num_int_register_writes           77408420                       # number of times the integer registers were written
system.cpu.num_load_insts                    26073648                       # Number of load instructions
system.cpu.num_mem_refs                      36099064                       # number of memory refs
system.cpu.num_store_insts                   10025416                       # Number of store instructions
system.cpu.num_vec_alu_accesses                     0                       # Number of vector alu accesses
system.cpu.num_vec_insts                            0                       # number of vector instructions
system.cpu.num_vec_register_reads                   0                       # number of times the vector registers were read
system.cpu.num_vec_register_writes                  0                       # number of times the vector registers were written
system.cpu.op_class::No_OpClass                976242      1.01%      1.01% # Class of executed instruction
system.cpu.op_class::IntAlu                  59877892     61.70%     62.71% # Class of executed instruction
system.cpu.op_class::IntMult                       74      0.00%     62.71% # Class of executed instruction
system.cpu.op_class::IntDiv                     36240      0.04%     62.75% # Class of executed instruction
system.cpu.op_class::FloatAdd                    5590      0.01%     62.75% # Class of executed instruction
system.cpu.op_class::FloatCmp                       0      0.00%     62.75% # Class of executed instruction
system.cpu.op_class::FloatCvt                    1232      0.00%     62.75% # Class of executed instruction
system.cpu.op_class::FloatMult                      0      0.00%     62.75% # Class of executed instruction
system.cpu.op_class::FloatMultAcc                   0      0.00%     62.75% # Class of executed instruction
system.cpu.op_class::FloatDiv                       0      0.00%     62.75% # Class of executed instruction
system.cpu.op_class::FloatMisc                      0      0.00%     62.75% # Class of executed instruction
system.cpu.op_class::FloatSqrt                      0      0.00%     62.75% # Class of executed instruction
system.cpu.op_class::SimdAdd                     6716      0.01%     62.76% # Class of executed instruction
system.cpu.op_class::SimdAddAcc                     0      0.00%     62.76% # Class of executed instruction
system.cpu.op_class::SimdAlu                    12162      0.01%     62.77% # Class of executed instruction
system.cpu.op_class::SimdCmp                        6      0.00%     62.77% # Class of executed instruction
system.cpu.op_class::SimdCvt                    13804      0.01%     62.79% # Class of executed instruction
system.cpu.op_class::SimdMisc                   12230      0.01%     62.80% # Class of executed instruction
system.cpu.op_class::SimdMult                       0      0.00%     62.80% # Class of executed instruction
system.cpu.op_class::SimdMultAcc                    0      0.00%     62.80% # Class of executed instruction
system.cpu.op_class::SimdShift                    436      0.00%     62.80% # Class of executed instruction
system.cpu.op_class::SimdShiftAcc                   0      0.00%     62.80% # Class of executed instruction
system.cpu.op_class::SimdDiv                        0      0.00%     62.80% # Class of executed instruction
system.cpu.op_class::SimdSqrt                       0      0.00%     62.80% # Class of executed instruction
system.cpu.op_class::SimdFloatAdd                  10      0.00%     62.80% # Class of executed instruction
system.cpu.op_class::SimdFloatAlu                   0      0.00%     62.80% # Class of executed instruction
system.cpu.op_class::SimdFloatCmp                   0      0.00%     62.80% # Class of executed instruction
system.cpu.op_class::SimdFloatCvt                  30      0.00%     62.80% # Class of executed instruction
system.cpu.op_class::SimdFloatDiv                   0      0.00%     62.80% # Class of executed instruction
system.cpu.op_class::SimdFloatMisc                  0      0.00%     62.80% # Class of executed instruction
system.cpu.op_class::SimdFloatMult                 12      0.00%     62.80% # Class of executed instruction
system.cpu.op_class::SimdFloatMultAcc               0      0.00%     62.80% # Class of executed instruction
system.cpu.op_class::SimdFloatSqrt                  0      0.00%     62.80% # Class of executed instruction
system.cpu.op_class::SimdReduceAdd                  0      0.00%     62.80% # Class of executed instruction
system.cpu.op_class::SimdReduceAlu                  0      0.00%     62.80% # Class of executed instruction
system.cpu.op_class::SimdReduceCmp                  0      0.00%     62.80% # Class of executed instruction
system.cpu.op_class::SimdFloatReduceAdd             0      0.00%     62.80% # Class of executed instruction
system.cpu.op_class::SimdFloatReduceCmp             0      0.00%     62.80% # Class of executed instruction
system.cpu.op_class::SimdAes                        0      0.00%     62.80% # Class of executed instruction
system.cpu.op_class::SimdAesMix                     0      0.00%     62.80% # Class of executed instruction
system.cpu.op_class::SimdSha1Hash                   0      0.00%     62.80% # Class of executed instruction
system.cpu.op_class::SimdSha1Hash2                  0      0.00%     62.80% # Class of executed instruction
system.cpu.op_class::SimdSha256Hash                 0      0.00%     62.80% # Class of executed instruction
system.cpu.op_class::SimdSha256Hash2                0      0.00%     62.80% # Class of executed instruction
system.cpu.op_class::SimdShaSigma2                  0      0.00%     62.80% # Class of executed instruction
system.cpu.op_class::SimdShaSigma3                  0      0.00%     62.80% # Class of executed instruction
system.cpu.op_class::SimdPredAlu                    0      0.00%     62.80% # Class of executed instruction
system.cpu.op_class::MemRead                 26056811     26.85%     89.65% # Class of executed instruction
system.cpu.op_class::MemWrite                10011978     10.32%     99.97% # Class of executed instruction
system.cpu.op_class::FloatMemRead               16837      0.02%     99.99% # Class of executed instruction
system.cpu.op_class::FloatMemWrite              13438      0.01%    100.00% # Class of executed instruction
system.cpu.op_class::IprAccess                      0      0.00%    100.00% # Class of executed instruction
system.cpu.op_class::InstPrefetch                   0      0.00%    100.00% # Class of executed instruction
system.cpu.op_class::total                   97041740                       # Class of executed instruction
system.cpu.predictedBranches                  5432390                       # Number of branches predicted as taken
system.cpu.workload.numSyscalls                   100                       # Number of system calls
system.membus.snoop_filter.hit_multi_requests            0                       # Number of requests hitting in the snoop filter with multiple (>1) holders of the requested data.
system.membus.snoop_filter.hit_multi_snoops            0                       # Number of snoops hitting in the snoop filter with multiple (>1) holders of the requested data.
system.membus.snoop_filter.hit_single_requests       181977                       # Number of requests hitting in the snoop filter with a single holder of the requested data.
system.membus.snoop_filter.hit_single_snoops            0                       # Number of snoops hitting in the snoop filter with a single holder of the requested data.
system.membus.snoop_filter.tot_requests        373201                       # Total number of requests made to the snoop filter.
system.membus.snoop_filter.tot_snoops               0                       # Total number of snoops made to the snoop filter.
system.tol2bus.snoop_filter.hit_multi_requests            0                       # Number of requests hitting in the snoop filter with multiple (>1) holders of the requested data.
system.tol2bus.snoop_filter.hit_multi_snoops            0                       # Number of snoops hitting in the snoop filter with multiple (>1) holders of the requested data.
system.tol2bus.snoop_filter.hit_single_requests       188377                       # Number of requests hitting in the snoop filter with a single holder of the requested data.
system.tol2bus.snoop_filter.hit_single_snoops       189781                       # Number of snoops hitting in the snoop filter with a single holder of the requested data.
system.tol2bus.snoop_filter.tot_requests       383955                       # Total number of requests made to the snoop filter.
system.tol2bus.snoop_filter.tot_snoops         189781                       # Total number of snoops made to the snoop filter.
system.clk_domain.clock                          1000                       # Clock period in ticks
system.cpu.branchPred.lookups                 7714197                       # Number of BP lookups
system.cpu.branchPred.condPredicted           4234671                       # Number of conditional branches predicted
system.cpu.branchPred.condIncorrect             46195                       # Number of conditional branches incorrect
system.cpu.branchPred.BTBLookups              4468293                       # Number of BTB lookups
system.cpu.branchPred.BTBHits                 4465541                       # Number of BTB hits
system.cpu.branchPred.BTBHitPct             99.938410                       # BTB Hit Percentage
system.cpu.branchPred.RASUsed                  962071                       # Number of times the RAS was used to get a target.
system.cpu.branchPred.RASIncorrect                  2                       # Number of incorrect RAS predictions.
system.cpu.branchPred.indirectLookups            5908                       # Number of indirect predictor lookups.
system.cpu.branchPred.indirectHits               4778                       # Number of indirect target hits.
system.cpu.branchPred.indirectMisses             1130                       # Number of indirect misses.
system.cpu.branchPred.indirectMispredicted         1273                       # Number of mispredicted indirect branches.
system.cpu.dcache.demand_hits::.cpu.data     35939762                       # number of demand (read+write) hits
system.cpu.dcache.demand_hits::total         35939762                       # number of demand (read+write) hits
system.cpu.dcache.overall_hits::.cpu.data     35939762                       # number of overall hits
system.cpu.dcache.overall_hits::total        35939762                       # number of overall hits
system.cpu.dcache.demand_misses::.cpu.data       191604                       # number of demand (read+write) misses
system.cpu.dcache.demand_misses::total         191604                       # number of demand (read+write) misses
system.cpu.dcache.overall_misses::.cpu.data       191604                       # number of overall misses
system.cpu.dcache.overall_misses::total        191604                       # number of overall misses
system.cpu.dcache.demand_miss_latency::.cpu.data  15571177500                       # number of demand (read+write) miss cycles
system.cpu.dcache.demand_miss_latency::total  15571177500                       # number of demand (read+write) miss cycles
system.cpu.dcache.overall_miss_latency::.cpu.data  15571177500                       # number of overall miss cycles
system.cpu.dcache.overall_miss_latency::total  15571177500                       # number of overall miss cycles
system.cpu.dcache.demand_accesses::.cpu.data     36131366                       # number of demand (read+write) accesses
system.cpu.dcache.demand_accesses::total     36131366                       # number of demand (read+write) accesses
system.cpu.dcache.overall_accesses::.cpu.data     36131366                       # number of overall (read+write) accesses
system.cpu.dcache.overall_accesses::total     36131366                       # number of overall (read+write) accesses
system.cpu.dcache.demand_miss_rate::.cpu.data     0.005303                       # miss rate for demand accesses
system.cpu.dcache.demand_miss_rate::total     0.005303                       # miss rate for demand accesses
system.cpu.dcache.overall_miss_rate::.cpu.data     0.005303                       # miss rate for overall accesses
system.cpu.dcache.overall_miss_rate::total     0.005303                       # miss rate for overall accesses
system.cpu.dcache.demand_avg_miss_latency::.cpu.data 81267.497025                       # average overall miss latency
system.cpu.dcache.demand_avg_miss_latency::total 81267.497025                       # average overall miss latency
system.cpu.dcache.overall_avg_miss_latency::.cpu.data 81267.497025                       # average overall miss latency
system.cpu.dcache.overall_avg_miss_latency::total 81267.497025                       # average overall miss latency
system.cpu.dcache.blocked_cycles::no_mshrs            0                       # number of cycles access was blocked
system.cpu.dcache.blocked_cycles::no_targets            0                       # number of cycles access was blocked
system.cpu.dcache.blocked::no_mshrs                 0                       # number of cycles access was blocked
system.cpu.dcache.blocked::no_targets               0                       # number of cycles access was blocked
system.cpu.dcache.avg_blocked_cycles::no_mshrs          nan                       # average number of cycles each access was blocked
system.cpu.dcache.avg_blocked_cycles::no_targets          nan                       # average number of cycles each access was blocked
system.cpu.dcache.writebacks::.writebacks       153776                       # number of writebacks
system.cpu.dcache.writebacks::total            153776                       # number of writebacks
system.cpu.dcache.demand_mshr_misses::.cpu.data       191604                       # number of demand (read+write) MSHR misses
system.cpu.dcache.demand_mshr_misses::total       191604                       # number of demand (read+write) MSHR misses
system.cpu.dcache.overall_mshr_misses::.cpu.data       191604                       # number of overall MSHR misses
system.cpu.dcache.overall_mshr_misses::total       191604                       # number of overall MSHR misses
system.cpu.dcache.demand_mshr_miss_latency::.cpu.data  15379573500                       # number of demand (read+write) MSHR miss cycles
system.cpu.dcache.demand_mshr_miss_latency::total  15379573500                       # number of demand (read+write) MSHR miss cycles
system.cpu.dcache.overall_mshr_miss_latency::.cpu.data  15379573500                       # number of overall MSHR miss cycles
system.cpu.dcache.overall_mshr_miss_latency::total  15379573500                       # number of overall MSHR miss cycles
system.cpu.dcache.demand_mshr_miss_rate::.cpu.data     0.005303                       # mshr miss rate for demand accesses
system.cpu.dcache.demand_mshr_miss_rate::total     0.005303                       # mshr miss rate for demand accesses
system.cpu.dcache.overall_mshr_miss_rate::.cpu.data     0.005303                       # mshr miss rate for overall accesses
system.cpu.dcache.overall_mshr_miss_rate::total     0.005303                       # mshr miss rate for overall accesses
system.cpu.dcache.demand_avg_mshr_miss_latency::.cpu.data 80267.497025                       # average overall mshr miss latency
system.cpu.dcache.demand_avg_mshr_miss_latency::total 80267.497025                       # average overall mshr miss latency
system.cpu.dcache.overall_avg_mshr_miss_latency::.cpu.data 80267.497025                       # average overall mshr miss latency
system.cpu.dcache.overall_avg_mshr_miss_latency::total 80267.497025                       # average overall mshr miss latency
system.cpu.dcache.replacements                 187508                       # number of replacements
system.cpu.dcache.ReadReq_hits::.cpu.data     25993562                       # number of ReadReq hits
system.cpu.dcache.ReadReq_hits::total        25993562                       # number of ReadReq hits
system.cpu.dcache.ReadReq_misses::.cpu.data        80207                       # number of ReadReq misses
system.cpu.dcache.ReadReq_misses::total         80207                       # number of ReadReq misses
system.cpu.dcache.ReadReq_miss_latency::.cpu.data   6894972500                       # number of ReadReq miss cycles
system.cpu.dcache.ReadReq_miss_latency::total   6894972500                       # number of ReadReq miss cycles
system.cpu.dcache.ReadReq_accesses::.cpu.data     26073769                       # number of ReadReq accesses(hits+misses)
system.cpu.dcache.ReadReq_accesses::total     26073769                       # number of ReadReq accesses(hits+misses)
system.cpu.dcache.ReadReq_miss_rate::.cpu.data     0.003076                       # miss rate for ReadReq accesses
system.cpu.dcache.ReadReq_miss_rate::total     0.003076                       # miss rate for ReadReq accesses
system.cpu.dcache.ReadReq_avg_miss_latency::.cpu.data 85964.722530                       # average ReadReq miss latency
system.cpu.dcache.ReadReq_avg_miss_latency::total 85964.722530                       # average ReadReq miss latency
system.cpu.dcache.ReadReq_mshr_misses::.cpu.data        80207                       # number of ReadReq MSHR misses
system.cpu.dcache.ReadReq_mshr_misses::total        80207                       # number of ReadReq MSHR misses
system.cpu.dcache.ReadReq_mshr_miss_latency::.cpu.data   6814765500                       # number of ReadReq MSHR miss cycles
system.cpu.dcache.ReadReq_mshr_miss_latency::total   6814765500                       # number of ReadReq MSHR miss cycles
system.cpu.dcache.ReadReq_mshr_miss_rate::.cpu.data     0.003076                       # mshr miss rate for ReadReq accesses
system.cpu.dcache.ReadReq_mshr_miss_rate::total     0.003076                       # mshr miss rate for ReadReq accesses
system.cpu.dcache.ReadReq_avg_mshr_miss_latency::.cpu.data 84964.722530                       # average ReadReq mshr miss latency
system.cpu.dcache.ReadReq_avg_mshr_miss_latency::total 84964.722530                       # average ReadReq mshr miss latency
system.cpu.dcache.WriteReq_hits::.cpu.data      9946200                       # number of WriteReq hits
system.cpu.dcache.WriteReq_hits::total        9946200                       # number of WriteReq hits
system.cpu.dcache.WriteReq_misses::.cpu.data       111397                       # number of WriteReq misses
system.cpu.dcache.WriteReq_misses::total       111397                       # number of WriteReq misses
system.cpu.dcache.WriteReq_miss_latency::.cpu.data   8676205000                       # number of WriteReq miss cycles
system.cpu.dcache.WriteReq_miss_latency::total   8676205000                       # number of WriteReq miss cycles
system.cpu.dcache.WriteReq_accesses::.cpu.data     10057597                       # number of WriteReq accesses(hits+misses)
system.cpu.dcache.WriteReq_accesses::total     10057597                       # number of WriteReq accesses(hits+misses)
system.cpu.dcache.WriteReq_miss_rate::.cpu.data     0.011076                       # miss rate for WriteReq accesses
system.cpu.dcache.WriteReq_miss_rate::total     0.011076                       # miss rate for WriteReq accesses
system.cpu.dcache.WriteReq_avg_miss_latency::.cpu.data 77885.445748                       # average WriteReq miss latency
system.cpu.dcache.WriteReq_avg_miss_latency::total 77885.445748                       # average WriteReq miss latency
system.cpu.dcache.WriteReq_mshr_misses::.cpu.data       111397                       # number of WriteReq MSHR misses
system.cpu.dcache.WriteReq_mshr_misses::total       111397                       # number of WriteReq MSHR misses
system.cpu.dcache.WriteReq_mshr_miss_latency::.cpu.data   8564808000                       # number of WriteReq MSHR miss cycles
system.cpu.dcache.WriteReq_mshr_miss_latency::total   8564808000                       # number of WriteReq MSHR miss cycles
system.cpu.dcache.WriteReq_mshr_miss_rate::.cpu.data     0.011076                       # mshr miss rate for WriteReq accesses
system.cpu.dcache.WriteReq_mshr_miss_rate::total     0.011076                       # mshr miss rate for WriteReq accesses
system.cpu.dcache.WriteReq_avg_mshr_miss_latency::.cpu.data 76885.445748                       # average WriteReq mshr miss latency
system.cpu.dcache.WriteReq_avg_mshr_miss_latency::total 76885.445748                       # average WriteReq mshr miss latency
system.cpu.dcache.power_state.pwrStateResidencyTicks::UNDEFINED 137373794500                       # Cumulative time (in ticks) in various power states
system.cpu.dcache.tags.tagsinuse          4082.226180                       # Cycle average of tags in use
system.cpu.dcache.tags.total_refs            36131366                       # Total number of references to valid blocks.
system.cpu.dcache.tags.sampled_refs            191604                       # Sample count of references to valid blocks.
system.cpu.dcache.tags.avg_refs            188.573130                       # Average number of references to valid blocks.
system.cpu.dcache.tags.warmup_cycle            174500                       # Cycle when the warmup percentage was hit.
system.cpu.dcache.tags.occ_blocks::.cpu.data  4082.226180                       # Average occupied blocks per requestor
system.cpu.dcache.tags.occ_percent::.cpu.data     0.996637                       # Average percentage of cache occupancy
system.cpu.dcache.tags.occ_percent::total     0.996637                       # Average percentage of cache occupancy
system.cpu.dcache.tags.occ_task_id_blocks::1024         4096                       # Occupied blocks per task id
system.cpu.dcache.tags.age_task_id_blocks_1024::0           35                       # Occupied blocks per task id
system.cpu.dcache.tags.age_task_id_blocks_1024::1          408                       # Occupied blocks per task id
system.cpu.dcache.tags.age_task_id_blocks_1024::2         3650                       # Occupied blocks per task id
system.cpu.dcache.tags.age_task_id_blocks_1024::3            3                       # Occupied blocks per task id
system.cpu.dcache.tags.occ_task_id_percent::1024            1                       # Percentage of cache occupancy per task id
system.cpu.dcache.tags.tag_accesses          72454336                       # Number of tag accesses
system.cpu.dcache.tags.data_accesses         72454336                       # Number of data accesses
system.cpu.dcache.tags.power_state.pwrStateResidencyTicks::UNDEFINED 137373794500                       # Cumulative time (in ticks) in various power states
system.cpu.dtb.rdAccesses                    26073991                       # TLB accesses on read requests
system.cpu.dtb.wrAccesses                    10058345                       # TLB accesses on write requests
system.cpu.dtb.rdMisses                          1987                       # TLB misses on read requests
system.cpu.dtb.wrMisses                          1560                       # TLB misses on write requests
system.cpu.dtb.walker.power_state.pwrStateResidencyTicks::UNDEFINED 137373794500                       # Cumulative time (in ticks) in various power states
system.cpu.dtb_walker_cache.blocked_cycles::no_mshrs            0                       # number of cycles access was blocked
system.cpu.dtb_walker_cache.blocked_cycles::no_targets            0                       # number of cycles access was blocked
system.cpu.dtb_walker_cache.blocked::no_mshrs            0                       # number of cycles access was blocked
system.cpu.dtb_walker_cache.blocked::no_targets            0                       # number of cycles access was blocked
system.cpu.dtb_walker_cache.avg_blocked_cycles::no_mshrs          nan                       # average number of cycles each access was blocked
system.cpu.dtb_walker_cache.avg_blocked_cycles::no_targets          nan                       # average number of cycles each access was blocked
system.cpu.dtb_walker_cache.replacements            0                       # number of replacements
system.cpu.dtb_walker_cache.power_state.pwrStateResidencyTicks::UNDEFINED 137373794500                       # Cumulative time (in ticks) in various power states
system.cpu.dtb_walker_cache.tags.tagsinuse            0                       # Cycle average of tags in use
system.cpu.dtb_walker_cache.tags.total_refs            0                       # Total number of references to valid blocks.
system.cpu.dtb_walker_cache.tags.sampled_refs            0                       # Sample count of references to valid blocks.
system.cpu.dtb_walker_cache.tags.avg_refs          nan                       # Average number of references to valid blocks.
system.cpu.dtb_walker_cache.tags.warmup_cycle            0                       # Cycle when the warmup percentage was hit.
system.cpu.dtb_walker_cache.tags.tag_accesses            0                       # Number of tag accesses
system.cpu.dtb_walker_cache.tags.data_accesses            0                       # Number of data accesses
system.cpu.dtb_walker_cache.tags.power_state.pwrStateResidencyTicks::UNDEFINED 137373794500                       # Cumulative time (in ticks) in various power states
system.cpu.icache.demand_hits::.cpu.inst     85583619                       # number of demand (read+write) hits
system.cpu.icache.demand_hits::total         85583619                       # number of demand (read+write) hits
system.cpu.icache.overall_hits::.cpu.inst     85583619                       # number of overall hits
system.cpu.icache.overall_hits::total        85583619                       # number of overall hits
system.cpu.icache.demand_misses::.cpu.inst         3974                       # number of demand (read+write) misses
system.cpu.icache.demand_misses::total           3974                       # number of demand (read+write) misses
system.cpu.icache.overall_misses::.cpu.inst         3974                       # number of overall misses
system.cpu.icache.overall_misses::total          3974                       # number of overall misses
system.cpu.icache.demand_miss_latency::.cpu.inst    314063000                       # number of demand (read+write) miss cycles
system.cpu.icache.demand_miss_latency::total    314063000                       # number of demand (read+write) miss cycles
system.cpu.icache.overall_miss_latency::.cpu.inst    314063000                       # number of overall miss cycles
system.cpu.icache.overall_miss_latency::total    314063000                       # number of overall miss cycles
system.cpu.icache.demand_accesses::.cpu.inst     85587593                       # number of demand (read+write) accesses
system.cpu.icache.demand_accesses::total     85587593                       # number of demand (read+write) accesses
system.cpu.icache.overall_accesses::.cpu.inst     85587593                       # number of overall (read+write) accesses
system.cpu.icache.overall_accesses::total     85587593                       # number of overall (read+write) accesses
system.cpu.icache.demand_miss_rate::.cpu.inst     0.000046                       # miss rate for demand accesses
system.cpu.icache.demand_miss_rate::total     0.000046                       # miss rate for demand accesses
system.cpu.icache.overall_miss_rate::.cpu.inst     0.000046                       # miss rate for overall accesses
system.cpu.icache.overall_miss_rate::total     0.000046                       # miss rate for overall accesses
system.cpu.icache.demand_avg_miss_latency::.cpu.inst 79029.441369                       # average overall miss latency
system.cpu.icache.demand_avg_miss_latency::total 79029.441369                       # average overall miss latency
system.cpu.icache.overall_avg_miss_latency::.cpu.inst 79029.441369                       # average overall miss latency
system.cpu.icache.overall_avg_miss_latency::total 79029.441369                       # average overall miss latency
system.cpu.icache.blocked_cycles::no_mshrs            0                       # number of cycles access was blocked
system.cpu.icache.blocked_cycles::no_targets            0                       # number of cycles access was blocked
system.cpu.icache.blocked::no_mshrs                 0                       # number of cycles access was blocked
system.cpu.icache.blocked::no_targets               0                       # number of cycles access was blocked
system.cpu.icache.avg_blocked_cycles::no_mshrs          nan                       # average number of cycles each access was blocked
system.cpu.icache.avg_blocked_cycles::no_targets          nan                       # average number of cycles each access was blocked
system.cpu.icache.writebacks::.writebacks          869                       # number of writebacks
system.cpu.icache.writebacks::total               869                       # number of writebacks
system.cpu.icache.demand_mshr_misses::.cpu.inst         3974                       # number of demand (read+write) MSHR misses
system.cpu.icache.demand_mshr_misses::total         3974                       # number of demand (read+write) MSHR misses
system.cpu.icache.overall_mshr_misses::.cpu.inst         3974                       # number of overall MSHR misses
system.cpu.icache.overall_mshr_misses::total         3974                       # number of overall MSHR misses
system.cpu.icache.demand_mshr_miss_latency::.cpu.inst    310089000                       # number of demand (read+write) MSHR miss cycles
system.cpu.icache.demand_mshr_miss_latency::total    310089000                       # number of demand (read+write) MSHR miss cycles
system.cpu.icache.overall_mshr_miss_latency::.cpu.inst    310089000                       # number of overall MSHR miss cycles
system.cpu.icache.overall_mshr_miss_latency::total    310089000                       # number of overall MSHR miss cycles
system.cpu.icache.demand_mshr_miss_rate::.cpu.inst     0.000046                       # mshr miss rate for demand accesses
system.cpu.icache.demand_mshr_miss_rate::total     0.000046                       # mshr miss rate for demand accesses
system.cpu.icache.overall_mshr_miss_rate::.cpu.inst     0.000046                       # mshr miss rate for overall accesses
system.cpu.icache.overall_mshr_miss_rate::total     0.000046                       # mshr miss rate for overall accesses
system.cpu.icache.demand_avg_mshr_miss_latency::.cpu.inst 78029.441369                       # average overall mshr miss latency
system.cpu.icache.demand_avg_mshr_miss_latency::total 78029.441369                       # average overall mshr miss latency
system.cpu.icache.overall_avg_mshr_miss_latency::.cpu.inst 78029.441369                       # average overall mshr miss latency
system.cpu.icache.overall_avg_mshr_miss_latency::total 78029.441369                       # average overall mshr miss latency
system.cpu.icache.replacements                    869                       # number of replacements
system.cpu.icache.ReadReq_hits::.cpu.inst     85583619                       # number of ReadReq hits
system.cpu.icache.ReadReq_hits::total        85583619                       # number of ReadReq hits
system.cpu.icache.ReadReq_misses::.cpu.inst         3974                       # number of ReadReq misses
system.cpu.icache.ReadReq_misses::total          3974                       # number of ReadReq misses
system.cpu.icache.ReadReq_miss_latency::.cpu.inst    314063000                       # number of ReadReq miss cycles
system.cpu.icache.ReadReq_miss_latency::total    314063000                       # number of ReadReq miss cycles
system.cpu.icache.ReadReq_accesses::.cpu.inst     85587593                       # number of ReadReq accesses(hits+misses)
system.cpu.icache.ReadReq_accesses::total     85587593                       # number of ReadReq accesses(hits+misses)
system.cpu.icache.ReadReq_miss_rate::.cpu.inst     0.000046                       # miss rate for ReadReq accesses
system.cpu.icache.ReadReq_miss_rate::total     0.000046                       # miss rate for ReadReq accesses
system.cpu.icache.ReadReq_avg_miss_latency::.cpu.inst 79029.441369                       # average ReadReq miss latency
system.cpu.icache.ReadReq_avg_miss_latency::total 79029.441369                       # average ReadReq miss latency
system.cpu.icache.ReadReq_mshr_misses::.cpu.inst         3974                       # number of ReadReq MSHR misses
system.cpu.icache.ReadReq_mshr_misses::total         3974                       # number of ReadReq MSHR misses
system.cpu.icache.ReadReq_mshr_miss_latency::.cpu.inst    310089000                       # number of ReadReq MSHR miss cycles
system.cpu.icache.ReadReq_mshr_miss_latency::total    310089000                       # number of ReadReq MSHR miss cycles
system.cpu.icache.ReadReq_mshr_miss_rate::.cpu.inst     0.000046                       # mshr miss rate for ReadReq accesses
system.cpu.icache.ReadReq_mshr_miss_rate::total     0.000046                       # mshr miss rate for ReadReq accesses
system.cpu.icache.ReadReq_avg_mshr_miss_latency::.cpu.inst 78029.441369                       # average ReadReq mshr miss latency
system.cpu.icache.ReadReq_avg_mshr_miss_latency::total 78029.441369                       # average ReadReq mshr miss latency
system.cpu.icache.power_state.pwrStateResidencyTicks::UNDEFINED 137373794500                       # Cumulative time (in ticks) in various power states
system.cpu.icache.tags.tagsinuse          2680.981972                       # Cycle average of tags in use
system.cpu.icache.tags.total_refs            85587593                       # Total number of references to valid blocks.
system.cpu.icache.tags.sampled_refs              3974                       # Sample count of references to valid blocks.
system.cpu.icache.tags.avg_refs          21536.888022                       # Average number of references to valid blocks.
system.cpu.icache.tags.warmup_cycle             87500                       # Cycle when the warmup percentage was hit.
system.cpu.icache.tags.occ_blocks::.cpu.inst  2680.981972                       # Average occupied blocks per requestor
system.cpu.icache.tags.occ_percent::.cpu.inst     0.654537                       # Average percentage of cache occupancy
system.cpu.icache.tags.occ_percent::total     0.654537                       # Average percentage of cache occupancy
system.cpu.icache.tags.occ_task_id_blocks::1024         3105                       # Occupied blocks per task id
system.cpu.icache.tags.age_task_id_blocks_1024::0           56                       # Occupied blocks per task id
system.cpu.icache.tags.age_task_id_blocks_1024::1          359                       # Occupied blocks per task id
system.cpu.icache.tags.age_task_id_blocks_1024::2           33                       # Occupied blocks per task id
system.cpu.icache.tags.age_task_id_blocks_1024::3          212                       # Occupied blocks per task id
system.cpu.icache.tags.age_task_id_blocks_1024::4         2445                       # Occupied blocks per task id
system.cpu.icache.tags.occ_task_id_percent::1024     0.758057                       # Percentage of cache occupancy per task id
system.cpu.icache.tags.tag_accesses         171179160                       # Number of tag accesses
system.cpu.icache.tags.data_accesses        171179160                       # Number of data accesses
system.cpu.icache.tags.power_state.pwrStateResidencyTicks::UNDEFINED 137373794500                       # Cumulative time (in ticks) in various power states
system.cpu.interrupts.clk_domain.clock           8000                       # Clock period in ticks
system.cpu.itb.rdAccesses                           0                       # TLB accesses on read requests
system.cpu.itb.wrAccesses                    85587722                       # TLB accesses on write requests
system.cpu.itb.rdMisses                             0                       # TLB misses on read requests
system.cpu.itb.wrMisses                           542                       # TLB misses on write requests
system.cpu.itb.walker.power_state.pwrStateResidencyTicks::UNDEFINED 137373794500                       # Cumulative time (in ticks) in various power states
system.cpu.itb_walker_cache.blocked_cycles::no_mshrs            0                       # number of cycles access was blocked
system.cpu.itb_walker_cache.blocked_cycles::no_targets            0                       # number of cycles access was blocked
system.cpu.itb_walker_cache.blocked::no_mshrs            0                       # number of cycles access was blocked
system.cpu.itb_walker_cache.blocked::no_targets            0                       # number of cycles access was blocked
system.cpu.itb_walker_cache.avg_blocked_cycles::no_mshrs          nan                       # average number of cycles each access was blocked
system.cpu.itb_walker_cache.avg_blocked_cycles::no_targets          nan                       # average number of cycles each access was blocked
system.cpu.itb_walker_cache.replacements            0                       # number of replacements
system.cpu.itb_walker_cache.power_state.pwrStateResidencyTicks::UNDEFINED 137373794500                       # Cumulative time (in ticks) in various power states
system.cpu.itb_walker_cache.tags.tagsinuse            0                       # Cycle average of tags in use
system.cpu.itb_walker_cache.tags.total_refs            0                       # Total number of references to valid blocks.
system.cpu.itb_walker_cache.tags.sampled_refs            0                       # Sample count of references to valid blocks.
system.cpu.itb_walker_cache.tags.avg_refs          nan                       # Average number of references to valid blocks.
system.cpu.itb_walker_cache.tags.warmup_cycle            0                       # Cycle when the warmup percentage was hit.
system.cpu.itb_walker_cache.tags.tag_accesses            0                       # Number of tag accesses
system.cpu.itb_walker_cache.tags.data_accesses            0                       # Number of data accesses
system.cpu.itb_walker_cache.tags.power_state.pwrStateResidencyTicks::UNDEFINED 137373794500                       # Cumulative time (in ticks) in various power states
system.cpu.power_state.pwrStateResidencyTicks::ON 137373794500                       # Cumulative time (in ticks) in various power states
system.cpu.thread_0.numInsts                        0                       # Number of Instructions committed
system.cpu.thread_0.numOps                          0                       # Number of Ops committed
system.cpu.thread_0.numMemRefs                      0                       # Number of Memory References
system.cpu_clk_domain.clock                       500                       # Clock period in ticks
system.cpu_voltage_domain.voltage                   1                       # Voltage in Volts
system.l2.demand_hits::.cpu.inst                   20                       # number of demand (read+write) hits
system.l2.demand_hits::.cpu.data                 4334                       # number of demand (read+write) hits
system.l2.demand_hits::total                     4354                       # number of demand (read+write) hits
system.l2.overall_hits::.cpu.inst                  20                       # number of overall hits
system.l2.overall_hits::.cpu.data                4334                       # number of overall hits
system.l2.overall_hits::total                    4354                       # number of overall hits
system.l2.demand_misses::.cpu.inst               3954                       # number of demand (read+write) misses
system.l2.demand_misses::.cpu.data             187270                       # number of demand (read+write) misses
system.l2.demand_misses::total                 191224                       # number of demand (read+write) misses
system.l2.overall_misses::.cpu.inst              3954                       # number of overall misses
system.l2.overall_misses::.cpu.data            187270                       # number of overall misses
system.l2.overall_misses::total                191224                       # number of overall misses
system.l2.demand_miss_latency::.cpu.inst    303918000                       # number of demand (read+write) miss cycles
system.l2.demand_miss_latency::.cpu.data  15046610500                       # number of demand (read+write) miss cycles
system.l2.demand_miss_latency::total      15350528500                       # number of demand (read+write) miss cycles
system.l2.overall_miss_latency::.cpu.inst    303918000                       # number of overall miss cycles
system.l2.overall_miss_latency::.cpu.data  15046610500                       # number of overall miss cycles
system.l2.overall_miss_latency::total     15350528500                       # number of overall miss cycles
system.l2.demand_accesses::.cpu.inst             3974                       # number of demand (read+write) accesses
system.l2.demand_accesses::.cpu.data           191604                       # number of demand (read+write) accesses
system.l2.demand_accesses::total               195578                       # number of demand (read+write) accesses
system.l2.overall_accesses::.cpu.inst            3974                       # number of overall (read+write) accesses
system.l2.overall_accesses::.cpu.data          191604                       # number of overall (read+write) accesses
system.l2.overall_accesses::total              195578                       # number of overall (read+write) accesses
system.l2.demand_miss_rate::.cpu.inst        0.994967                       # miss rate for demand accesses
system.l2.demand_miss_rate::.cpu.data        0.977380                       # miss rate for demand accesses
system.l2.demand_miss_rate::total            0.977738                       # miss rate for demand accesses
system.l2.overall_miss_rate::.cpu.inst       0.994967                       # miss rate for overall accesses
system.l2.overall_miss_rate::.cpu.data       0.977380                       # miss rate for overall accesses
system.l2.overall_miss_rate::total           0.977738                       # miss rate for overall accesses
system.l2.demand_avg_miss_latency::.cpu.inst 76863.429439                       # average overall miss latency
system.l2.demand_avg_miss_latency::.cpu.data 80347.148502                       # average overall miss latency
system.l2.demand_avg_miss_latency::total 80275.114525                       # average overall miss latency
system.l2.overall_avg_miss_latency::.cpu.inst 76863.429439                       # average overall miss latency
system.l2.overall_avg_miss_latency::.cpu.data 80347.148502                       # average overall miss latency
system.l2.overall_avg_miss_latency::total 80275.114525                       # average overall miss latency
system.l2.blocked_cycles::no_mshrs                  0                       # number of cycles access was blocked
system.l2.blocked_cycles::no_targets                0                       # number of cycles access was blocked
system.l2.blocked::no_mshrs                         0                       # number of cycles access was blocked
system.l2.blocked::no_targets                       0                       # number of cycles access was blocked
system.l2.avg_blocked_cycles::no_mshrs            nan                       # average number of cycles each access was blocked
system.l2.avg_blocked_cycles::no_targets          nan                       # average number of cycles each access was blocked
system.l2.writebacks::.writebacks              147743                       # number of writebacks
system.l2.writebacks::total                    147743                       # number of writebacks
system.l2.demand_mshr_misses::.cpu.inst          3954                       # number of demand (read+write) MSHR misses
system.l2.demand_mshr_misses::.cpu.data        187270                       # number of demand (read+write) MSHR misses
system.l2.demand_mshr_misses::total            191224                       # number of demand (read+write) MSHR misses
system.l2.overall_mshr_misses::.cpu.inst         3954                       # number of overall MSHR misses
system.l2.overall_mshr_misses::.cpu.data       187270                       # number of overall MSHR misses
system.l2.overall_mshr_misses::total           191224                       # number of overall MSHR misses
system.l2.demand_mshr_miss_latency::.cpu.inst    264378000                       # number of demand (read+write) MSHR miss cycles
system.l2.demand_mshr_miss_latency::.cpu.data  13173910500                       # number of demand (read+write) MSHR miss cycles
system.l2.demand_mshr_miss_latency::total  13438288500                       # number of demand (read+write) MSHR miss cycles
system.l2.overall_mshr_miss_latency::.cpu.inst    264378000                       # number of overall MSHR miss cycles
system.l2.overall_mshr_miss_latency::.cpu.data  13173910500                       # number of overall MSHR miss cycles
system.l2.overall_mshr_miss_latency::total  13438288500                       # number of overall MSHR miss cycles
system.l2.demand_mshr_miss_rate::.cpu.inst     0.994967                       # mshr miss rate for demand accesses
system.l2.demand_mshr_miss_rate::.cpu.data     0.977380                       # mshr miss rate for demand accesses
system.l2.demand_mshr_miss_rate::total       0.977738                       # mshr miss rate for demand accesses
system.l2.overall_mshr_miss_rate::.cpu.inst     0.994967                       # mshr miss rate for overall accesses
system.l2.overall_mshr_miss_rate::.cpu.data     0.977380                       # mshr miss rate for overall accesses
system.l2.overall_mshr_miss_rate::total      0.977738                       # mshr miss rate for overall accesses
system.l2.demand_avg_mshr_miss_latency::.cpu.inst 66863.429439                       # average overall mshr miss latency
system.l2.demand_avg_mshr_miss_latency::.cpu.data 70347.148502                       # average overall mshr miss latency
system.l2.demand_avg_mshr_miss_latency::total 70275.114525                       # average overall mshr miss latency
system.l2.overall_avg_mshr_miss_latency::.cpu.inst 66863.429439                       # average overall mshr miss latency
system.l2.overall_avg_mshr_miss_latency::.cpu.data 70347.148502                       # average overall mshr miss latency
system.l2.overall_avg_mshr_miss_latency::total 70275.114525                       # average overall mshr miss latency
system.l2.replacements                         339292                       # number of replacements
system.l2.WritebackDirty_hits::.writebacks       153776                       # number of WritebackDirty hits
system.l2.WritebackDirty_hits::total           153776                       # number of WritebackDirty hits
system.l2.WritebackDirty_accesses::.writebacks       153776                       # number of WritebackDirty accesses(hits+misses)
system.l2.WritebackDirty_accesses::total       153776                       # number of WritebackDirty accesses(hits+misses)
system.l2.WritebackClean_hits::.writebacks          869                       # number of WritebackClean hits
system.l2.WritebackClean_hits::total              869                       # number of WritebackClean hits
system.l2.WritebackClean_accesses::.writebacks          869                       # number of WritebackClean accesses(hits+misses)
system.l2.WritebackClean_accesses::total          869                       # number of WritebackClean accesses(hits+misses)
system.l2.CleanEvict_mshr_misses::.writebacks        32466                       # number of CleanEvict MSHR misses
system.l2.CleanEvict_mshr_misses::total         32466                       # number of CleanEvict MSHR misses
system.l2.CleanEvict_mshr_miss_rate::.writebacks          inf                       # mshr miss rate for CleanEvict accesses
system.l2.CleanEvict_mshr_miss_rate::total          inf                       # mshr miss rate for CleanEvict accesses
system.l2.ReadExReq_hits::.cpu.data               795                       # number of ReadExReq hits
system.l2.ReadExReq_hits::total                   795                       # number of ReadExReq hits
system.l2.ReadExReq_misses::.cpu.data          110602                       # number of ReadExReq misses
system.l2.ReadExReq_misses::total              110602                       # number of ReadExReq misses
system.l2.ReadExReq_miss_latency::.cpu.data   8389364000                       # number of ReadExReq miss cycles
system.l2.ReadExReq_miss_latency::total    8389364000                       # number of ReadExReq miss cycles
system.l2.ReadExReq_accesses::.cpu.data        111397                       # number of ReadExReq accesses(hits+misses)
system.l2.ReadExReq_accesses::total            111397                       # number of ReadExReq accesses(hits+misses)
system.l2.ReadExReq_miss_rate::.cpu.data     0.992863                       # miss rate for ReadExReq accesses
system.l2.ReadExReq_miss_rate::total         0.992863                       # miss rate for ReadExReq accesses
system.l2.ReadExReq_avg_miss_latency::.cpu.data 75851.829081                       # average ReadExReq miss latency
system.l2.ReadExReq_avg_miss_latency::total 75851.829081                       # average ReadExReq miss latency
system.l2.ReadExReq_mshr_misses::.cpu.data       110602                       # number of ReadExReq MSHR misses
system.l2.ReadExReq_mshr_misses::total         110602                       # number of ReadExReq MSHR misses
system.l2.ReadExReq_mshr_miss_latency::.cpu.data   7283344000                       # number of ReadExReq MSHR miss cycles
system.l2.ReadExReq_mshr_miss_latency::total   7283344000                       # number of ReadExReq MSHR miss cycles
system.l2.ReadExReq_mshr_miss_rate::.cpu.data     0.992863                       # mshr miss rate for ReadExReq accesses
system.l2.ReadExReq_mshr_miss_rate::total     0.992863                       # mshr miss rate for ReadExReq accesses
system.l2.ReadExReq_avg_mshr_miss_latency::.cpu.data 65851.829081                       # average ReadExReq mshr miss latency
system.l2.ReadExReq_avg_mshr_miss_latency::total 65851.829081                       # average ReadExReq mshr miss latency
system.l2.ReadCleanReq_hits::.cpu.inst             20                       # number of ReadCleanReq hits
system.l2.ReadCleanReq_hits::total                 20                       # number of ReadCleanReq hits
system.l2.ReadCleanReq_misses::.cpu.inst         3954                       # number of ReadCleanReq misses
system.l2.ReadCleanReq_misses::total             3954                       # number of ReadCleanReq misses
system.l2.ReadCleanReq_miss_latency::.cpu.inst    303918000                       # number of ReadCleanReq miss cycles
system.l2.ReadCleanReq_miss_latency::total    303918000                       # number of ReadCleanReq miss cycles
system.l2.ReadCleanReq_accesses::.cpu.inst         3974                       # number of ReadCleanReq accesses(hits+misses)
system.l2.ReadCleanReq_accesses::total           3974                       # number of ReadCleanReq accesses(hits+misses)
system.l2.ReadCleanReq_miss_rate::.cpu.inst     0.994967                       # miss rate for ReadCleanReq accesses
system.l2.ReadCleanReq_miss_rate::total      0.994967                       # miss rate for ReadCleanReq accesses
system.l2.ReadCleanReq_avg_miss_latency::.cpu.inst 76863.429439                       # average ReadCleanReq miss latency
system.l2.ReadCleanReq_avg_miss_latency::total 76863.429439                       # average ReadCleanReq miss latency
system.l2.ReadCleanReq_mshr_misses::.cpu.inst         3954                       # number of ReadCleanReq MSHR misses
system.l2.ReadCleanReq_mshr_misses::total         3954                       # number of ReadCleanReq MSHR misses
system.l2.ReadCleanReq_mshr_miss_latency::.cpu.inst    264378000                       # number of ReadCleanReq MSHR miss cycles
system.l2.ReadCleanReq_mshr_miss_latency::total    264378000                       # number of ReadCleanReq MSHR miss cycles
system.l2.ReadCleanReq_mshr_miss_rate::.cpu.inst     0.994967                       # mshr miss rate for ReadCleanReq accesses
system.l2.ReadCleanReq_mshr_miss_rate::total     0.994967                       # mshr miss rate for ReadCleanReq accesses
system.l2.ReadCleanReq_avg_mshr_miss_latency::.cpu.inst 66863.429439                       # average ReadCleanReq mshr miss latency
system.l2.ReadCleanReq_avg_mshr_miss_latency::total 66863.429439                       # average ReadCleanReq mshr miss latency
system.l2.ReadSharedReq_hits::.cpu.data          3539                       # number of ReadSharedReq hits
system.l2.ReadSharedReq_hits::total              3539                       # number of ReadSharedReq hits
system.l2.ReadSharedReq_misses::.cpu.data        76668                       # number of ReadSharedReq misses
system.l2.ReadSharedReq_misses::total           76668                       # number of ReadSharedReq misses
system.l2.ReadSharedReq_miss_latency::.cpu.data   6657246500                       # number of ReadSharedReq miss cycles
system.l2.ReadSharedReq_miss_latency::total   6657246500                       # number of ReadSharedReq miss cycles
system.l2.ReadSharedReq_accesses::.cpu.data        80207                       # number of ReadSharedReq accesses(hits+misses)
system.l2.ReadSharedReq_accesses::total         80207                       # number of ReadSharedReq accesses(hits+misses)
system.l2.ReadSharedReq_miss_rate::.cpu.data     0.955877                       # miss rate for ReadSharedReq accesses
system.l2.ReadSharedReq_miss_rate::total     0.955877                       # miss rate for ReadSharedReq accesses
system.l2.ReadSharedReq_avg_miss_latency::.cpu.data 86832.139876                       # average ReadSharedReq miss latency
system.l2.ReadSharedReq_avg_miss_latency::total 86832.139876                       # average ReadSharedReq miss latency
system.l2.ReadSharedReq_mshr_misses::.cpu.data        76668                       # number of ReadSharedReq MSHR misses
system.l2.ReadSharedReq_mshr_misses::total        76668                       # number of ReadSharedReq MSHR misses
system.l2.ReadSharedReq_mshr_miss_latency::.cpu.data   5890566500                       # number of ReadSharedReq MSHR miss cycles
system.l2.ReadSharedReq_mshr_miss_latency::total   5890566500                       # number of ReadSharedReq MSHR miss cycles
system.l2.ReadSharedReq_mshr_miss_rate::.cpu.data     0.955877                       # mshr miss rate for ReadSharedReq accesses
system.l2.ReadSharedReq_mshr_miss_rate::total     0.955877                       # mshr miss rate for ReadSharedReq accesses
system.l2.ReadSharedReq_avg_mshr_miss_latency::.cpu.data 76832.139876                       # average ReadSharedReq mshr miss latency
system.l2.ReadSharedReq_avg_mshr_miss_latency::total 76832.139876                       # average ReadSharedReq mshr miss latency
system.l2.power_state.pwrStateResidencyTicks::UNDEFINED 137373794500                       # Cumulative time (in ticks) in various power states
system.l2.tags.tagsinuse                  4086.079950                       # Cycle average of tags in use
system.l2.tags.total_refs                      351489                       # Total number of references to valid blocks.
system.l2.tags.sampled_refs                    343388                       # Sample count of references to valid blocks.
system.l2.tags.avg_refs                      1.023591                       # Average number of references to valid blocks.
system.l2.tags.warmup_cycle                     77000                       # Cycle when the warmup percentage was hit.
system.l2.tags.occ_blocks::.writebacks    1931.365764                       # Average occupied blocks per requestor
system.l2.tags.occ_blocks::.cpu.inst        31.253265                       # Average occupied blocks per requestor
system.l2.tags.occ_blocks::.cpu.data      2123.460921                       # Average occupied blocks per requestor
system.l2.tags.occ_percent::.writebacks      0.471525                       # Average percentage of cache occupancy
system.l2.tags.occ_percent::.cpu.inst        0.007630                       # Average percentage of cache occupancy
system.l2.tags.occ_percent::.cpu.data        0.518423                       # Average percentage of cache occupancy
system.l2.tags.occ_percent::total            0.997578                       # Average percentage of cache occupancy
system.l2.tags.occ_task_id_blocks::1024          4096                       # Occupied blocks per task id
system.l2.tags.age_task_id_blocks_1024::0          158                       # Occupied blocks per task id
system.l2.tags.age_task_id_blocks_1024::1         1093                       # Occupied blocks per task id
system.l2.tags.age_task_id_blocks_1024::2         2845                       # Occupied blocks per task id
system.l2.tags.occ_task_id_percent::1024            1                       # Percentage of cache occupancy per task id
system.l2.tags.tag_accesses                   1111298                       # Number of tag accesses
system.l2.tags.data_accesses                  1111298                       # Number of data accesses
system.l2.tags.power_state.pwrStateResidencyTicks::UNDEFINED 137373794500                       # Cumulative time (in ticks) in various power states
system.mem_ctrls.avgPriority_.writebacks::samples     77645.00                       # Average QoS priority value for accepted requests
system.mem_ctrls.avgPriority_.cpu.inst::samples      3954.00                       # Average QoS priority value for accepted requests
system.mem_ctrls.avgPriority_.cpu.data::samples    184157.00                       # Average QoS priority value for accepted requests
system.mem_ctrls.priorityMinLatency      0.000000018750                       # per QoS priority minimum request to response latency (s)
system.mem_ctrls.priorityMaxLatency      0.032618722500                       # per QoS priority maximum request to response latency (s)
system.mem_ctrls.numReadWriteTurnArounds         4375                       # Number of turnarounds from READ to WRITE
system.mem_ctrls.numWriteReadTurnArounds         4375                       # Number of turnarounds from WRITE to READ
system.mem_ctrls.numStayReadState              558330                       # Number of times bus staying in READ state
system.mem_ctrls.numStayWriteState              73324                       # Number of times bus staying in WRITE state
system.mem_ctrls.readReqs                      191224                       # Number of read requests accepted
system.mem_ctrls.writeReqs                     147743                       # Number of write requests accepted
system.mem_ctrls.readBursts                    191224                       # Number of controller read bursts, including those serviced by the write queue
system.mem_ctrls.writeBursts                   147743                       # Number of controller write bursts, including those merged in the write queue
system.mem_ctrls.servicedByWrQ                   3113                       # Number of controller read bursts serviced by the write queue
system.mem_ctrls.mergedWrBursts                 70098                       # Number of controller write bursts merged with an existing one
system.mem_ctrls.neitherReadNorWriteReqs            0                       # Number of requests that are neither read nor write
system.mem_ctrls.avgRdQLen                       1.00                       # Average read queue length when enqueuing
system.mem_ctrls.avgWrQLen                      23.91                       # Average write queue length when enqueuing
system.mem_ctrls.numRdRetry                         0                       # Number of times read queue was full causing retry
system.mem_ctrls.numWrRetry                         0                       # Number of times write queue was full causing retry
system.mem_ctrls.readPktSize::0                     0                       # Read request sizes (log2)
system.mem_ctrls.readPktSize::1                     0                       # Read request sizes (log2)
system.mem_ctrls.readPktSize::2                     0                       # Read request sizes (log2)
system.mem_ctrls.readPktSize::3                     0                       # Read request sizes (log2)
system.mem_ctrls.readPktSize::4                     0                       # Read request sizes (log2)
system.mem_ctrls.readPktSize::5                191224                       # Read request sizes (log2)
system.mem_ctrls.writePktSize::0                    0                       # Write request sizes (log2)
system.mem_ctrls.writePktSize::1                    0                       # Write request sizes (log2)
system.mem_ctrls.writePktSize::2                    0                       # Write request sizes (log2)
system.mem_ctrls.writePktSize::3                    0                       # Write request sizes (log2)
system.mem_ctrls.writePktSize::4                    0                       # Write request sizes (log2)
system.mem_ctrls.writePktSize::5               147743                       # Write request sizes (log2)
system.mem_ctrls.rdQLenPdf::0                  188090                       # What read queue length does an incoming req see
system.mem_ctrls.rdQLenPdf::1                      21                       # What read queue length does an incoming req see
system.mem_ctrls.rdQLenPdf::2                       0                       # What read queue length does an incoming req see
system.mem_ctrls.rdQLenPdf::3                       0                       # What read queue length does an incoming req see
system.mem_ctrls.rdQLenPdf::4                       0                       # What read queue length does an incoming req see
system.mem_ctrls.rdQLenPdf::5                       0                       # What read queue length does an incoming req see
system.mem_ctrls.rdQLenPdf::6                       0                       # What read queue length does an incoming req see
system.mem_ctrls.rdQLenPdf::7                       0                       # What read queue length does an incoming req see
system.mem_ctrls.rdQLenPdf::8                       0                       # What read queue length does an incoming req see
system.mem_ctrls.rdQLenPdf::9                       0                       # What read queue length does an incoming req see
system.mem_ctrls.rdQLenPdf::10                      0                       # What read queue length does an incoming req see
system.mem_ctrls.rdQLenPdf::11                      0                       # What read queue length does an incoming req see
system.mem_ctrls.rdQLenPdf::12                      0                       # What read queue length does an incoming req see
system.mem_ctrls.rdQLenPdf::13                      0                       # What read queue length does an incoming req see
system.mem_ctrls.rdQLenPdf::14                      0                       # What read queue length does an incoming req see
system.mem_ctrls.rdQLenPdf::15                      0                       # What read queue length does an incoming req see
system.mem_ctrls.rdQLenPdf::16                      0                       # What read queue length does an incoming req see
system.mem_ctrls.rdQLenPdf::17                      0                       # What read queue length does an incoming req see
system.mem_ctrls.rdQLenPdf::18                      0                       # What read queue length does an incoming req see
system.mem_ctrls.rdQLenPdf::19                      0                       # What read queue length does an incoming req see
system.mem_ctrls.rdQLenPdf::20                      0                       # What read queue length does an incoming req see
system.mem_ctrls.rdQLenPdf::21                      0                       # What read queue length does an incoming req see
system.mem_ctrls.rdQLenPdf::22                      0                       # What read queue length does an incoming req see
system.mem_ctrls.rdQLenPdf::23                      0                       # What read queue length does an incoming req see
system.mem_ctrls.rdQLenPdf::24                      0                       # What read queue length does an incoming req see
system.mem_ctrls.rdQLenPdf::25                      0                       # What read queue length does an incoming req see
system.mem_ctrls.rdQLenPdf::26                      0                       # What read queue length does an incoming req see
system.mem_ctrls.rdQLenPdf::27                      0                       # What read queue length does an incoming req see
system.mem_ctrls.rdQLenPdf::28                      0                       # What read queue length does an incoming req see
system.mem_ctrls.rdQLenPdf::29                      0                       # What read queue length does an incoming req see
system.mem_ctrls.rdQLenPdf::30                      0                       # What read queue length does an incoming req see
system.mem_ctrls.rdQLenPdf::31                      0                       # What read queue length does an incoming req see
system.mem_ctrls.wrQLenPdf::0                       1                       # What write queue length does an incoming req see
system.mem_ctrls.wrQLenPdf::1                       1                       # What write queue length does an incoming req see
system.mem_ctrls.wrQLenPdf::2                       1                       # What write queue length does an incoming req see
system.mem_ctrls.wrQLenPdf::3                       1                       # What write queue length does an incoming req see
system.mem_ctrls.wrQLenPdf::4                       1                       # What write queue length does an incoming req see
system.mem_ctrls.wrQLenPdf::5                       1                       # What write queue length does an incoming req see
system.mem_ctrls.wrQLenPdf::6                       1                       # What write queue length does an incoming req see
system.mem_ctrls.wrQLenPdf::7                       1                       # What write queue length does an incoming req see
system.mem_ctrls.wrQLenPdf::8                       1                       # What write queue length does an incoming req see
system.mem_ctrls.wrQLenPdf::9                       1                       # What write queue length does an incoming req see
system.mem_ctrls.wrQLenPdf::10                      1                       # What write queue length does an incoming req see
system.mem_ctrls.wrQLenPdf::11                      1                       # What write queue length does an incoming req see
system.mem_ctrls.wrQLenPdf::12                      1                       # What write queue length does an incoming req see
system.mem_ctrls.wrQLenPdf::13                      1                       # What write queue length does an incoming req see
system.mem_ctrls.wrQLenPdf::14                      1                       # What write queue length does an incoming req see
system.mem_ctrls.wrQLenPdf::15                   3806                       # What write queue length does an incoming req see
system.mem_ctrls.wrQLenPdf::16                   3817                       # What write queue length does an incoming req see
system.mem_ctrls.wrQLenPdf::17                   4378                       # What write queue length does an incoming req see
system.mem_ctrls.wrQLenPdf::18                   4376                       # What write queue length does an incoming req see
system.mem_ctrls.wrQLenPdf::19                   4376                       # What write queue length does an incoming req see
system.mem_ctrls.wrQLenPdf::20                   4376                       # What write queue length does an incoming req see
system.mem_ctrls.wrQLenPdf::21                   4376                       # What write queue length does an incoming req see
system.mem_ctrls.wrQLenPdf::22                   4375                       # What write queue length does an incoming req see
system.mem_ctrls.wrQLenPdf::23                   4375                       # What write queue length does an incoming req see
system.mem_ctrls.wrQLenPdf::24                   4375                       # What write queue length does an incoming req see
system.mem_ctrls.wrQLenPdf::25                   4375                       # What write queue length does an incoming req see
system.mem_ctrls.wrQLenPdf::26                   4375                       # What write queue length does an incoming req see
system.mem_ctrls.wrQLenPdf::27                   4375                       # What write queue length does an incoming req see
system.mem_ctrls.wrQLenPdf::28                   4375                       # What write queue length does an incoming req see
system.mem_ctrls.wrQLenPdf::29                   4375                       # What write queue length does an incoming req see
system.mem_ctrls.wrQLenPdf::30                   4375                       # What write queue length does an incoming req see
system.mem_ctrls.wrQLenPdf::31                   4375                       # What write queue length does an incoming req see
system.mem_ctrls.wrQLenPdf::32                   4375                       # What write queue length does an incoming req see
system.mem_ctrls.wrQLenPdf::33                      0                       # What write queue length does an incoming req see
system.mem_ctrls.wrQLenPdf::34                      0                       # What write queue length does an incoming req see
system.mem_ctrls.wrQLenPdf::35                      0                       # What write queue length does an incoming req see
system.mem_ctrls.wrQLenPdf::36                      0                       # What write queue length does an incoming req see
system.mem_ctrls.wrQLenPdf::37                      0                       # What write queue length does an incoming req see
system.mem_ctrls.wrQLenPdf::38                      0                       # What write queue length does an incoming req see
system.mem_ctrls.wrQLenPdf::39                      0                       # What write queue length does an incoming req see
system.mem_ctrls.wrQLenPdf::40                      0                       # What write queue length does an incoming req see
system.mem_ctrls.wrQLenPdf::41                      0                       # What write queue length does an incoming req see
system.mem_ctrls.wrQLenPdf::42                      0                       # What write queue length does an incoming req see
system.mem_ctrls.wrQLenPdf::43                      0                       # What write queue length does an incoming req see
system.mem_ctrls.wrQLenPdf::44                      0                       # What write queue length does an incoming req see
system.mem_ctrls.wrQLenPdf::45                      0                       # What write queue length does an incoming req see
system.mem_ctrls.wrQLenPdf::46                      0                       # What write queue length does an incoming req see
system.mem_ctrls.wrQLenPdf::47                      0                       # What write queue length does an incoming req see
system.mem_ctrls.wrQLenPdf::48                      0                       # What write queue length does an incoming req see
system.mem_ctrls.wrQLenPdf::49                      0                       # What write queue length does an incoming req see
system.mem_ctrls.wrQLenPdf::50                      0                       # What write queue length does an incoming req see
system.mem_ctrls.wrQLenPdf::51                      0                       # What write queue length does an incoming req see
system.mem_ctrls.wrQLenPdf::52                      0                       # What write queue length does an incoming req see
system.mem_ctrls.wrQLenPdf::53                      0                       # What write queue length does an incoming req see
system.mem_ctrls.wrQLenPdf::54                      0                       # What write queue length does an incoming req see
system.mem_ctrls.wrQLenPdf::55                      0                       # What write queue length does an incoming req see
system.mem_ctrls.wrQLenPdf::56                      0                       # What write queue length does an incoming req see
system.mem_ctrls.wrQLenPdf::57                      0                       # What write queue length does an incoming req see
system.mem_ctrls.wrQLenPdf::58                      0                       # What write queue length does an incoming req see
system.mem_ctrls.wrQLenPdf::59                      0                       # What write queue length does an incoming req see
system.mem_ctrls.wrQLenPdf::60                      0                       # What write queue length does an incoming req see
system.mem_ctrls.wrQLenPdf::61                      0                       # What write queue length does an incoming req see
system.mem_ctrls.wrQLenPdf::62                      0                       # What write queue length does an incoming req see
system.mem_ctrls.wrQLenPdf::63                      0                       # What write queue length does an incoming req see
system.mem_ctrls.rdPerTurnAround::samples         4375                       # Reads before turning the bus around for writes
system.mem_ctrls.rdPerTurnAround::mean      42.992914                       # Reads before turning the bus around for writes
system.mem_ctrls.rdPerTurnAround::gmean     37.449756                       # Reads before turning the bus around for writes
system.mem_ctrls.rdPerTurnAround::stdev     92.213350                       # Reads before turning the bus around for writes
system.mem_ctrls.rdPerTurnAround::0-255          4351     99.45%     99.45% # Reads before turning the bus around for writes
system.mem_ctrls.rdPerTurnAround::256-511           15      0.34%     99.79% # Reads before turning the bus around for writes
system.mem_ctrls.rdPerTurnAround::512-767            3      0.07%     99.86% # Reads before turning the bus around for writes
system.mem_ctrls.rdPerTurnAround::768-1023            2      0.05%     99.91% # Reads before turning the bus around for writes
system.mem_ctrls.rdPerTurnAround::1024-1279            1      0.02%     99.93% # Reads before turning the bus around for writes
system.mem_ctrls.rdPerTurnAround::1280-1535            1      0.02%     99.95% # Reads before turning the bus around for writes
system.mem_ctrls.rdPerTurnAround::3072-3327            1      0.02%     99.98% # Reads before turning the bus around for writes
system.mem_ctrls.rdPerTurnAround::4096-4351            1      0.02%    100.00% # Reads before turning the bus around for writes
system.mem_ctrls.rdPerTurnAround::total          4375                       # Reads before turning the bus around for writes
system.mem_ctrls.wrPerTurnAround::samples         4375                       # Writes before turning the bus around for reads
system.mem_ctrls.wrPerTurnAround::mean      17.742400                       # Writes before turning the bus around for reads
system.mem_ctrls.wrPerTurnAround::gmean     17.729004                       # Writes before turning the bus around for reads
[...]
system.mem_ctrls.dram.bw_total::.cpu.data     43622876                       # Total bandwidth to/from this memory (bytes/s)
system.mem_ctrls.dram.bw_total::total        78959339                       # Total bandwidth to/from this memory (bytes/s)
system.mem_ctrls.dram.readBursts               188111                       # Number of DRAM read bursts
system.mem_ctrls.dram.writeBursts               77623                       # Number of DRAM write bursts
system.mem_ctrls.dram.perBankRdBursts::0        12469                       # Per bank write bursts
system.mem_ctrls.dram.perBankRdBursts::1        12013                       # Per bank write bursts
system.mem_ctrls.dram.perBankRdBursts::2        11605                       # Per bank write bursts
system.mem_ctrls.dram.perBankRdBursts::3        12580                       # Per bank write bursts
system.mem_ctrls.dram.perBankRdBursts::4        11373                       # Per bank write bursts
system.mem_ctrls.dram.perBankRdBursts::5        11059                       # Per bank write bursts
system.mem_ctrls.dram.perBankRdBursts::6        11143                       # Per bank write bursts
system.mem_ctrls.dram.perBankRdBursts::7        11626                       # Per bank write bursts
system.mem_ctrls.dram.perBankRdBursts::8        11964                       # Per bank write bursts
system.mem_ctrls.dram.perBankRdBursts::9        12384                       # Per bank write bursts
system.mem_ctrls.dram.perBankRdBursts::10        12527                       # Per bank write bursts
system.mem_ctrls.dram.perBankRdBursts::11        11702                       # Per bank write bursts
system.mem_ctrls.dram.perBankRdBursts::12        11210                       # Per bank write bursts
system.mem_ctrls.dram.perBankRdBursts::13        11031                       # Per bank write bursts
system.mem_ctrls.dram.perBankRdBursts::14        11379                       # Per bank write bursts
system.mem_ctrls.dram.perBankRdBursts::15        12046                       # Per bank write bursts
system.mem_ctrls.dram.perBankWrBursts::0         5113                       # Per bank write bursts
system.mem_ctrls.dram.perBankWrBursts::1         4938                       # Per bank write bursts
system.mem_ctrls.dram.perBankWrBursts::2         4888                       # Per bank write bursts
system.mem_ctrls.dram.perBankWrBursts::3         5007                       # Per bank write bursts
system.mem_ctrls.dram.perBankWrBursts::4         4531                       # Per bank write bursts
system.mem_ctrls.dram.perBankWrBursts::5         4604                       # Per bank write bursts
system.mem_ctrls.dram.perBankWrBursts::6         4933                       # Per bank write bursts
system.mem_ctrls.dram.perBankWrBursts::7         4484                       # Per bank write bursts
system.mem_ctrls.dram.perBankWrBursts::8         5135                       # Per bank write bursts
system.mem_ctrls.dram.perBankWrBursts::9         5031                       # Per bank write bursts
system.mem_ctrls.dram.perBankWrBursts::10         5101                       # Per bank write bursts
system.mem_ctrls.dram.perBankWrBursts::11         4952                       # Per bank write bursts
system.mem_ctrls.dram.perBankWrBursts::12         4814                       # Per bank write bursts
system.mem_ctrls.dram.perBankWrBursts::13         4590                       # Per bank write bursts
system.mem_ctrls.dram.perBankWrBursts::14         4791                       # Per bank write bursts
system.mem_ctrls.dram.perBankWrBursts::15         4711                       # Per bank write bursts
system.mem_ctrls.dram.totQLat              2124878250                       # Total ticks spent queuing
system.mem_ctrls.dram.totBusLat             940555000                       # Total ticks spent in databus transfers
system.mem_ctrls.dram.totMemAccLat         5651959500                       # Total ticks spent from burst creation until serviced by the DRAM
system.mem_ctrls.dram.avgQLat                11295.87                       # Average queueing delay per DRAM burst
system.mem_ctrls.dram.avgBusLat               5000.00                       # Average bus latency per DRAM burst
system.mem_ctrls.dram.avgMemAccLat           30045.87                       # Average memory access latency per DRAM burst
system.mem_ctrls.dram.readRowHits              122260                       # Number of row buffer hits during reads
system.mem_ctrls.dram.writeRowHits              67462                       # Number of row buffer hits during writes
system.mem_ctrls.dram.readRowHitRate            64.99                       # Row buffer hit rate for reads
system.mem_ctrls.dram.writeRowHitRate           86.91                       # Row buffer hit rate for writes
system.mem_ctrls.dram.bytesPerActivate::samples        76009                       # Bytes accessed per row activation
system.mem_ctrls.dram.bytesPerActivate::mean   223.743609                       # Bytes accessed per row activation
system.mem_ctrls.dram.bytesPerActivate::gmean   130.809274                       # Bytes accessed per row activation
system.mem_ctrls.dram.bytesPerActivate::stdev   273.962106                       # Bytes accessed per row activation
system.mem_ctrls.dram.bytesPerActivate::0-127        43564     57.31%     57.31% # Bytes accessed per row activation
system.mem_ctrls.dram.bytesPerActivate::128-255         8943     11.77%     69.08% # Bytes accessed per row activation
system.mem_ctrls.dram.bytesPerActivate::256-383        10989     14.46%     83.54% # Bytes accessed per row activation
system.mem_ctrls.dram.bytesPerActivate::384-511         1518      2.00%     85.53% # Bytes accessed per row activation
system.mem_ctrls.dram.bytesPerActivate::512-639         2212      2.91%     88.44% # Bytes accessed per row activation
system.mem_ctrls.dram.bytesPerActivate::640-767         1975      2.60%     91.04% # Bytes accessed per row activation
system.mem_ctrls.dram.bytesPerActivate::768-895         1279      1.68%     92.73% # Bytes accessed per row activation
system.mem_ctrls.dram.bytesPerActivate::896-1023         1155      1.52%     94.25% # Bytes accessed per row activation
system.mem_ctrls.dram.bytesPerActivate::1024-1151         4374      5.75%    100.00% # Bytes accessed per row activation
system.mem_ctrls.dram.bytesPerActivate::total        76009                       # Bytes accessed per row activation
system.mem_ctrls.dram.bytesRead              12039104                       # Total number of bytes read from DRAM
system.mem_ctrls.dram.bytesWritten            4967872                       # Total number of bytes written to DRAM
system.mem_ctrls.dram.avgRdBW               87.637559                       # Average DRAM read bandwidth in MiBytes/s
system.mem_ctrls.dram.avgWrBW               36.163171                       # Average DRAM write bandwidth in MiBytes/s
system.mem_ctrls.dram.peakBW                 12800.00                       # Theoretical peak bandwidth in MiByte/s
system.mem_ctrls.dram.busUtil                    0.97                       # Data bus utilization in percentage
system.mem_ctrls.dram.busUtilRead                0.68                       # Data bus utilization in percentage for reads
system.mem_ctrls.dram.busUtilWrite               0.28                       # Data bus utilization in percentage for writes
system.mem_ctrls.dram.pageHitRate               71.40                       # Row buffer hit rate, read and write combined
system.mem_ctrls.dram.power_state.pwrStateResidencyTicks::UNDEFINED 137373794500                       # Cumulative time (in ticks) in various power states
system.mem_ctrls.dram.rank0.actEnergy       268756740                       # Energy for activate commands per rank (pJ)
system.mem_ctrls.dram.rank0.preEnergy       142840005                       # Energy for precharge commands per rank (pJ)
system.mem_ctrls.dram.rank0.readEnergy      670217520                       # Energy for read commands per rank (pJ)
system.mem_ctrls.dram.rank0.writeEnergy     200959560                       # Energy for write commands per rank (pJ)
system.mem_ctrls.dram.rank0.refreshEnergy 10844093520.000002                       # Energy for refresh commands per rank (pJ)
system.mem_ctrls.dram.rank0.actBackEnergy  24390549660                       # Energy for active background per rank (pJ)
system.mem_ctrls.dram.rank0.preBackEnergy  32212127040                       # Energy for precharge background per rank (pJ)
system.mem_ctrls.dram.rank0.actPowerDownEnergy            0                       # Energy for active power-down per rank (pJ)
system.mem_ctrls.dram.rank0.prePowerDownEnergy            0                       # Energy for precharge power-down per rank (pJ)
system.mem_ctrls.dram.rank0.selfRefreshEnergy            0                       # Energy for self refresh per rank (pJ)
system.mem_ctrls.dram.rank0.totalEnergy   68729544045                       # Total energy per rank (pJ)
system.mem_ctrls.dram.rank0.averagePower   500.310443                       # Core power per rank (mW)
system.mem_ctrls.dram.rank0.totalIdleTime            0                       # Total Idle time Per DRAM Rank
system.mem_ctrls.dram.rank0.pwrStateTime::IDLE  83360155500                       # Time in different power states
system.mem_ctrls.dram.rank0.pwrStateTime::REF   4587180000                       # Time in different power states
system.mem_ctrls.dram.rank0.pwrStateTime::SREF            0                       # Time in different power states
system.mem_ctrls.dram.rank0.pwrStateTime::PRE_PDN            0                       # Time in different power states
system.mem_ctrls.dram.rank0.pwrStateTime::ACT  49426459000                       # Time in different power states
system.mem_ctrls.dram.rank0.pwrStateTime::ACT_PDN            0                       # Time in different power states
system.mem_ctrls.dram.rank1.actEnergy       273968940                       # Energy for activate commands per rank (pJ)
system.mem_ctrls.dram.rank1.preEnergy       145614150                       # Energy for precharge commands per rank (pJ)
system.mem_ctrls.dram.rank1.readEnergy      672895020                       # Energy for read commands per rank (pJ)
system.mem_ctrls.dram.rank1.writeEnergy     204232500                       # Energy for write commands per rank (pJ)
system.mem_ctrls.dram.rank1.refreshEnergy 10844093520.000002                       # Energy for refresh commands per rank (pJ)
system.mem_ctrls.dram.rank1.actBackEnergy  24901597410                       # Energy for active background per rank (pJ)
system.mem_ctrls.dram.rank1.preBackEnergy  31781771040                       # Energy for precharge background per rank (pJ)
system.mem_ctrls.dram.rank1.actPowerDownEnergy            0                       # Energy for active power-down per rank (pJ)
system.mem_ctrls.dram.rank1.prePowerDownEnergy            0                       # Energy for precharge power-down per rank (pJ)
system.mem_ctrls.dram.rank1.selfRefreshEnergy            0                       # Energy for self refresh per rank (pJ)
system.mem_ctrls.dram.rank1.totalEnergy   68824172580                       # Total energy per rank (pJ)
system.mem_ctrls.dram.rank1.averagePower   500.999283                       # Core power per rank (mW)
system.mem_ctrls.dram.rank1.totalIdleTime            0                       # Total Idle time Per DRAM Rank
system.mem_ctrls.dram.rank1.pwrStateTime::IDLE  82179976500                       # Time in different power states
system.mem_ctrls.dram.rank1.pwrStateTime::REF   4587180000                       # Time in different power states
system.mem_ctrls.dram.rank1.pwrStateTime::SREF            0                       # Time in different power states
system.mem_ctrls.dram.rank1.pwrStateTime::PRE_PDN            0                       # Time in different power states
system.mem_ctrls.dram.rank1.pwrStateTime::ACT  50606638000                       # Time in different power states
system.mem_ctrls.dram.rank1.pwrStateTime::ACT_PDN            0                       # Time in different power states
system.mem_ctrls.power_state.pwrStateResidencyTicks::UNDEFINED 137373794500                       # Cumulative time (in ticks) in various power states
system.membus.trans_dist::ReadResp              80622                       # Transaction distribution
system.membus.trans_dist::WritebackDirty       147743                       # Transaction distribution
system.membus.trans_dist::CleanEvict            34234                       # Transaction distribution
system.membus.trans_dist::ReadExReq            110602                       # Transaction distribution
system.membus.trans_dist::ReadExResp           110602                       # Transaction distribution
system.membus.trans_dist::ReadSharedReq         80622                       # Transaction distribution
system.membus.pkt_count_system.l2.mem_side_port::system.mem_ctrls.port       564425                       # Packet count per connected requestor and responder (bytes)
system.membus.pkt_count_system.l2.mem_side_port::total       564425                       # Packet count per connected requestor and responder (bytes)
system.membus.pkt_count::total                 564425                       # Packet count per connected requestor and responder (bytes)
system.membus.pkt_size_system.l2.mem_side_port::system.mem_ctrls.port     10846944                       # Cumulative packet size per connected requestor and responder (bytes)
system.membus.pkt_size_system.l2.mem_side_port::total     10846944                       # Cumulative packet size per connected requestor and responder (bytes)
system.membus.pkt_size::total                10846944                       # Cumulative packet size per connected requestor and responder (bytes)
system.membus.snoops                                0                       # Total snoops (count)
system.membus.snoopTraffic                          0                       # Total snoop traffic (bytes)
system.membus.snoop_fanout::samples            191224                       # Request fanout histogram
system.membus.snoop_fanout::mean                    0                       # Request fanout histogram
system.membus.snoop_fanout::stdev                   0                       # Request fanout histogram
system.membus.snoop_fanout::underflows              0      0.00%      0.00% # Request fanout histogram
system.membus.snoop_fanout::0                  191224    100.00%    100.00% # Request fanout histogram
system.membus.snoop_fanout::1                       0      0.00%    100.00% # Request fanout histogram
system.membus.snoop_fanout::overflows               0      0.00%    100.00% # Request fanout histogram
system.membus.snoop_fanout::min_value               0                       # Request fanout histogram
system.membus.snoop_fanout::max_value               0                       # Request fanout histogram
system.membus.snoop_fanout::total              191224                       # Request fanout histogram
system.membus.power_state.pwrStateResidencyTicks::UNDEFINED 137373794500                       # Cumulative time (in ticks) in various power states
system.membus.reqLayer2.occupancy           668728500                       # Layer occupancy (ticks)
system.membus.reqLayer2.utilization               0.5                       # Layer utilization (%)
system.membus.respLayer1.occupancy          646369500                       # Layer occupancy (ticks)
system.membus.respLayer1.utilization              0.5                       # Layer utilization (%)
system.tol2bus.trans_dist::ReadResp             84181                       # Transaction distribution
system.tol2bus.trans_dist::WritebackDirty       301519                       # Transaction distribution
system.tol2bus.trans_dist::WritebackClean          869                       # Transaction distribution
system.tol2bus.trans_dist::CleanEvict          225281                       # Transaction distribution
system.tol2bus.trans_dist::ReadExReq           111397                       # Transaction distribution
system.tol2bus.trans_dist::ReadExResp          111397                       # Transaction distribution
system.tol2bus.trans_dist::ReadCleanReq          3974                       # Transaction distribution
system.tol2bus.trans_dist::ReadSharedReq        80207                       # Transaction distribution
system.tol2bus.pkt_count_system.cpu.icache.mem_side_port::system.l2.cpu_side_port         8817                       # Packet count per connected requestor and responder (bytes)
system.tol2bus.pkt_count_system.cpu.dcache.mem_side_port::system.l2.cpu_side_port       570716                       # Packet count per connected requestor and responder (bytes)
system.tol2bus.pkt_count::total                579533                       # Packet count per connected requestor and responder (bytes)
system.tol2bus.pkt_size_system.cpu.icache.mem_side_port::system.l2.cpu_side_port       154976                       # Cumulative packet size per connected requestor and responder (bytes)
system.tol2bus.pkt_size_system.cpu.dcache.mem_side_port::system.l2.cpu_side_port     11052160                       # Cumulative packet size per connected requestor and responder (bytes)
system.tol2bus.pkt_size::total               11207136                       # Cumulative packet size per connected requestor and responder (bytes)
system.tol2bus.snoops                          339292                       # Total snoops (count)
system.tol2bus.snoopTraffic                   4727776                       # Total snoop traffic (bytes)
system.tol2bus.snoop_fanout::samples           534870                       # Request fanout histogram
system.tol2bus.snoop_fanout::mean            0.354817                       # Request fanout histogram
system.tol2bus.snoop_fanout::stdev           0.478458                       # Request fanout histogram
system.tol2bus.snoop_fanout::underflows             0      0.00%      0.00% # Request fanout histogram
system.tol2bus.snoop_fanout::0                 345089     64.52%     64.52% # Request fanout histogram
system.tol2bus.snoop_fanout::1                 189781     35.48%    100.00% # Request fanout histogram
system.tol2bus.snoop_fanout::2                      0      0.00%    100.00% # Request fanout histogram
system.tol2bus.snoop_fanout::3                      0      0.00%    100.00% # Request fanout histogram
system.tol2bus.snoop_fanout::4                      0      0.00%    100.00% # Request fanout histogram
system.tol2bus.snoop_fanout::overflows              0      0.00%    100.00% # Request fanout histogram
system.tol2bus.snoop_fanout::min_value              0                       # Request fanout histogram
system.tol2bus.snoop_fanout::max_value              1                       # Request fanout histogram
system.tol2bus.snoop_fanout::total             534870                       # Request fanout histogram
system.tol2bus.power_state.pwrStateResidencyTicks::UNDEFINED 137373794500                       # Cumulative time (in ticks) in various power states
system.tol2bus.reqLayer0.occupancy          269300000                       # Layer occupancy (ticks)
system.tol2bus.reqLayer0.utilization              0.2                       # Layer utilization (%)
system.tol2bus.respLayer0.occupancy           3974000                       # Layer occupancy (ticks)
system.tol2bus.respLayer0.utilization             0.0                       # Layer utilization (%)
system.tol2bus.respLayer1.occupancy         191604000                       # Layer occupancy (ticks)
system.tol2bus.respLayer1.utilization             0.1                       # Layer utilization (%)
system.voltage_domain.voltage                       1                       # Voltage in Volts

---------- End Simulation Statistics   ----------
