
---------- Begin Simulation Statistics ----------
final_tick                               137370476500                       # Number of ticks from beginning of simulation (restored from checkpoints and never reset)
host_inst_rate                                 476835                       # Simulator instruction rate (inst/s)
host_mem_usage                                 712748                       # Number of bytes of host memory used
host_op_rate                                   729435                       # Simulator op (including micro ops) rate (op/s)
host_seconds                                   133.04                       # Real time elapsed on the host
host_tick_rate                             1032569341                       # Simulator tick rate (ticks/s)
sim_freq                                 1000000000000                       # Frequency of simulated ticks
sim_insts                                    63436877                       # Number of instructions simulated
sim_ops                                      97042213                       # Number of ops (including micro ops) simulated
sim_seconds                                  0.137370                       # Number of seconds simulated
sim_ticks                                137370476500                       # Number of ticks simulated
system.cpu.Branches                           7714394                       # Number of branches fetched
system.cpu.committedInsts                    63436877                       # Number of instructions committed
system.cpu.committedOps                      97042213                       # Number of ops (including micro ops) committed
system.cpu.idle_fraction                     0.000000                       # Percentage of idle cycles
system.cpu.not_idle_fraction                 1.000000                       # Percentage of non-idle cycles
system.cpu.numCycles                        274740953                       # number of cpu cycles simulated
system.cpu.numWorkItemsCompleted                    0                       # number of work items this cpu completed
system.cpu.numWorkItemsStarted                      0                       # number of work items this cpu started
system.cpu.num_busy_cycles               274740952.998000                       # Number of busy cycles
system.cpu.num_cc_register_reads             29902189                       # number of times the CC registers were read
system.cpu.num_cc_register_writes            27168371                       # number of times the CC registers were written
system.cpu.num_conditional_control_insts      4234784                       # number of instructions that are conditional controls
system.cpu.num_fp_alu_accesses                  85206                       # Number of float alu accesses
system.cpu.num_fp_insts                         85206                       # number of float instructions
system.cpu.num_fp_register_reads               119500                       # number of times the floating registers were read
system.cpu.num_fp_register_writes               63458                       # number of times the floating registers were written
system.cpu.num_func_calls                     1924148                       # number of times a function call or return occured
system.cpu.num_idle_cycles                   0.002000                       # Number of idle cycles
system.cpu.num_int_alu_accesses              95088670                       # Number of integer alu accesses
system.cpu.num_int_insts                     95088670                       # number of integer instructions
system.cpu.num_int_register_reads           214307203                       # number of times the integer registers were read
system.cpu.num_int_register_writes           77409630                       # number of times the integer registers were written
system.cpu.num_load_insts                    26073751                       # Number of load instructions
system.cpu.num_mem_refs                      36099172                       # number of memory refs
system.cpu.num_store_insts                   10025421                       # Number of store instructions
system.cpu.num_vec_alu_accesses                     0                       # Number of vector alu accesses
system.cpu.num_vec_insts                            0                       # number of vector instructions
system.cpu.num_vec_register_reads                   0                       # number of times the vector registers were read
system.cpu.num_vec_register_writes                  0                       # number of times the vector registers were written
system.cpu.op_class::No_OpClass                976243      1.01%      1.01% # Class of executed instruction
system.cpu.op_class::IntAlu                  59879196     61.70%     62.71% # Class of executed instruction
system.cpu.op_class::IntMult                       74      0.00%     62.71% # Class of executed instruction
system.cpu.op_class::IntDiv                     36240      0.04%     62.75% # Class of executed instruction
system.cpu.op_class::FloatAdd                    5590      0.01%     62.75% # Class of executed instruction
system.cpu.op_class::FloatCmp                       0      0.00%     62.75% # Class of executed instruction
system.cpu.op_class::FloatCvt                    1232      0.00%     62.75% # Class of executed instruction
system.cpu.op_class::FloatMult                      0      0.00%     62.75% # Class of executed instruction
system.cpu.op_class::FloatMultAcc                   0      0.00%     62.75% # Class of executed instruction
system.cpu.op_class::FloatDiv                       0      0.00%     62.75% # Class of executed instruction
system.cpu.op_class::FloatMisc                      0      0.00%     62.75% # Class of executed instruction
system.cpu.op_class::FloatSqrt                      0      0.00%     62.75% # Class of executed instruction
system.cpu.op_class::SimdAdd                     6716      0.01%     62.76% # Class of executed instruction
system.cpu.op_class::SimdAddAcc                     0      0.00%     62.76% # Class of executed instruction
system.cpu.op_class::SimdAlu                    12162      0.01%     62.77% # Class of executed instruction
system.cpu.op_class::SimdCmp                        6      0.00%     62.77% # Class of executed instruction
system.cpu.op_class::SimdCvt                    13804      0.01%     62.79% # Class of executed instruction
system.cpu.op_class::SimdMisc                   12230      0.01%     62.80% # Class of executed instruction
system.cpu.op_class::SimdMult                       0      0.00%     62.80% # Class of executed instruction
system.cpu.op_class::SimdMultAcc                    0      0.00%     62.80% # Class of executed instruction
system.cpu.op_class::SimdShift                    436      0.00%     62.80% # Class of executed instruction
system.cpu.op_class::SimdShiftAcc                   0      0.00%     62.80% # Class of executed instruction
system.cpu.op_class::SimdDiv                        0      0.00%     62.80% # Class of executed instruction
system.cpu.op_class::SimdSqrt                       0      0.00%     62.80% # Class of executed instruction
system.cpu.op_class::SimdFloatAdd                  10      0.00%     62.80% # Class of executed instruction
system.cpu.op_class::SimdFloatAlu                   0      0.00%     62.80% # Class of executed instruction
system.cpu.op_class::SimdFloatCmp                   0      0.00%     62.80% # Class of executed instruction
system.cpu.op_class::SimdFloatCvt                  30      0.00%     62.80% # Class of executed instruction
system.cpu.op_class::SimdFloatDiv                   0      0.00%     62.80% # Class of executed instruction
system.cpu.op_class::SimdFloatMisc                  0      0.00%     62.80% # Class of executed instruction
system.cpu.op_class::SimdFloatMult                 12      0.00%     62.80% # Class of executed instruction
system.cpu.op_class::SimdFloatMultAcc               0      0.00%     62.80% # Class of executed instruction
system.cpu.op_class::SimdFloatSqrt                  0      0.00%     62.80% # Class of executed instruction
system.cpu.op_class::SimdReduceAdd                  0      0.00%     62.80% # Class of executed instruction
system.cpu.op_class::SimdReduceAlu                  0      0.00%     62.80% # Class of executed instruction
system.cpu.op_class::SimdReduceCmp                  0      0.00%     62.80% # Class of executed instruction
system.cpu.op_class::SimdFloatReduceAdd             0      0.00%     62.80% # Class of executed instruction
system.cpu.op_class::SimdFloatReduceCmp             0      0.00%     62.80% # Class of executed instruction
system.cpu.op_class::SimdAes                        0      0.00%     62.80% # Class of executed instruction
system.cpu.op_class::SimdAesMix                     0      0.00%     62.80% # Class of executed instruction
system.cpu.op_class::SimdSha1Hash                   0      0.00%     62.80% # Class of executed instruction
system.cpu.op_class::SimdSha1Hash2                  0      0.00%     62.80% # Class of executed instruction
system.cpu.op_class::SimdSha256Hash                 0      0.00%     62.80% # Class of executed instruction
system.cpu.op_class::SimdSha256Hash2                0      0.00%     62.80% # Class of executed instruction
system.cpu.op_class::SimdShaSigma2                  0      0.00%     62.80% # Class of executed instruction
system.cpu.op_class::SimdShaSigma3                  0      0.00%     62.80% # Class of executed instruction
system.cpu.op_class::SimdPredAlu                    0      0.00%     62.80% # Class of executed instruction
system.cpu.op_class::MemRead                 26056914     26.85%     89.65% # Class of executed instruction
system.cpu.op_class::MemWrite                10011983     10.32%     99.97% # Class of executed instruction
system.cpu.op_class::FloatMemRead               16837      0.02%     99.99% # Class of executed instruction
system.cpu.op_class::FloatMemWrite              13438      0.01%    100.00% # Class of executed instruction
system.cpu.op_class::IprAccess                      0      0.00%    100.00% # Class of executed instruction
system.cpu.op_class::InstPrefetch                   0      0.00%    100.00% # Class of executed instruction
system.cpu.op_class::total                   97043153                       # Class of executed instruction
system.cpu.workload.numSyscalls                   100                       # Number of system calls
system.membus.snoop_filter.hit_multi_requests            0                       # Number of requests hitting in the snoop filter with multiple (>1) holders of the requested data.
system.membus.snoop_filter.hit_multi_snoops            0                       # Number of snoops hitting in the snoop filter with multiple (>1) holders of the requested data.
system.membus.snoop_filter.hit_single_requests       181266                       # Number of requests hitting in the snoop filter with a single holder of the requested data.
system.membus.snoop_filter.hit_single_snoops            0                       # Number of snoops hitting in the snoop filter with a single holder of the requested data.
system.membus.snoop_filter.tot_requests        372463                       # Total number of requests made to the snoop filter.
system.membus.snoop_filter.tot_snoops               0                       # Total number of snoops made to the snoop filter.
system.tol2bus.snoop_filter.hit_multi_requests            0                       # Number of requests hitting in the snoop filter with multiple (>1) holders of the requested data.
system.tol2bus.snoop_filter.hit_multi_snoops            0                       # Number of snoops hitting in the snoop filter with multiple (>1) holders of the requested data.
system.tol2bus.snoop_filter.hit_single_requests       187750                       # Number of requests hitting in the snoop filter with a single holder of the requested data.
system.tol2bus.snoop_filter.hit_single_snoops       189857                       # Number of snoops hitting in the snoop filter with a single holder of the requested data.
system.tol2bus.snoop_filter.tot_requests       383285                       # Total number of requests made to the snoop filter.
system.tol2bus.snoop_filter.tot_snoops         189857                       # Total number of snoops made to the snoop filter.
system.clk_domain.clock                          1000                       # Clock period in ticks
system.cpu.dcache.demand_hits::.cpu.data     35939860                       # number of demand (read+write) hits
system.cpu.dcache.demand_hits::total         35939860                       # number of demand (read+write) hits
system.cpu.dcache.overall_hits::.cpu.data     35939860                       # number of overall hits
system.cpu.dcache.overall_hits::total        35939860                       # number of overall hits
system.cpu.dcache.demand_misses::.cpu.data       191613                       # number of demand (read+write) misses
system.cpu.dcache.demand_misses::total         191613                       # number of demand (read+write) misses
system.cpu.dcache.overall_misses::.cpu.data       191613                       # number of overall misses
system.cpu.dcache.overall_misses::total        191613                       # number of overall misses
system.cpu.dcache.demand_miss_latency::.cpu.data  15571730000                       # number of demand (read+write) miss cycles
system.cpu.dcache.demand_miss_latency::total  15571730000                       # number of demand (read+write) miss cycles
system.cpu.dcache.overall_miss_latency::.cpu.data  15571730000                       # number of overall miss cycles
system.cpu.dcache.overall_miss_latency::total  15571730000                       # number of overall miss cycles
system.cpu.dcache.demand_accesses::.cpu.data     36131473                       # number of demand (read+write) accesses
system.cpu.dcache.demand_accesses::total     36131473                       # number of demand (read+write) accesses
system.cpu.dcache.overall_accesses::.cpu.data     36131473                       # number of overall (read+write) accesses
system.cpu.dcache.overall_accesses::total     36131473                       # number of overall (read+write) accesses
system.cpu.dcache.demand_miss_rate::.cpu.data     0.005303                       # miss rate for demand accesses
system.cpu.dcache.demand_miss_rate::total     0.005303                       # miss rate for demand accesses
system.cpu.dcache.overall_miss_rate::.cpu.data     0.005303                       # miss rate for overall accesses
system.cpu.dcache.overall_miss_rate::total     0.005303                       # miss rate for overall accesses
system.cpu.dcache.demand_avg_miss_latency::.cpu.data 81266.563333                       # average overall miss latency
system.cpu.dcache.demand_avg_miss_latency::total 81266.563333                       # average overall miss latency
system.cpu.dcache.overall_avg_miss_latency::.cpu.data 81266.563333                       # average overall miss latency
system.cpu.dcache.overall_avg_miss_latency::total 81266.563333                       # average overall miss latency
system.cpu.dcache.blocked_cycles::no_mshrs            0                       # number of cycles access was blocked
system.cpu.dcache.blocked_cycles::no_targets            0                       # number of cycles access was blocked
system.cpu.dcache.blocked::no_mshrs                 0                       # number of cycles access was blocked
system.cpu.dcache.blocked::no_targets               0                       # number of cycles access was blocked
system.cpu.dcache.avg_blocked_cycles::no_mshrs          nan                       # average number of cycles each access was blocked
system.cpu.dcache.avg_blocked_cycles::no_targets          nan                       # average number of cycles each access was blocked
system.cpu.dcache.writebacks::.writebacks       153779                       # number of writebacks
system.cpu.dcache.writebacks::total            153779                       # number of writebacks
system.cpu.dcache.demand_mshr_misses::.cpu.data       191613                       # number of demand (read+write) MSHR misses
system.cpu.dcache.demand_mshr_misses::total       191613                       # number of demand (read+write) MSHR misses
system.cpu.dcache.overall_mshr_misses::.cpu.data       191613                       # number of overall MSHR misses
system.cpu.dcache.overall_mshr_misses::total       191613                       # number of overall MSHR misses
system.cpu.dcache.demand_mshr_miss_latency::.cpu.data  15380117000                       # number of demand (read+write) MSHR miss cycles
system.cpu.dcache.demand_mshr_miss_latency::total  15380117000                       # number of demand (read+write) MSHR miss cycles
system.cpu.dcache.overall_mshr_miss_latency::.cpu.data  15380117000                       # number of overall MSHR miss cycles
system.cpu.dcache.overall_mshr_miss_latency::total  15380117000                       # number of overall MSHR miss cycles
system.cpu.dcache.demand_mshr_miss_rate::.cpu.data     0.005303                       # mshr miss rate for demand accesses
system.cpu.dcache.demand_mshr_miss_rate::total     0.005303                       # mshr miss rate for demand accesses
system.cpu.dcache.overall_mshr_miss_rate::.cpu.data     0.005303                       # mshr miss rate for overall accesses
system.cpu.dcache.overall_mshr_miss_rate::total     0.005303                       # mshr miss rate for overall accesses
system.cpu.dcache.demand_avg_mshr_miss_latency::.cpu.data 80266.563333                       # average overall mshr miss latency
system.cpu.dcache.demand_avg_mshr_miss_latency::total 80266.563333                       # average overall mshr miss latency
system.cpu.dcache.overall_avg_mshr_miss_latency::.cpu.data 80266.563333                       # average overall mshr miss latency
system.cpu.dcache.overall_avg_mshr_miss_latency::total 80266.563333                       # average overall mshr miss latency
system.cpu.dcache.replacements                 187517                       # number of replacements
system.cpu.dcache.ReadReq_hits::.cpu.data     25993655                       # number of ReadReq hits
system.cpu.dcache.ReadReq_hits::total        25993655                       # number of ReadReq hits
system.cpu.dcache.ReadReq_misses::.cpu.data        80216                       # number of ReadReq misses
system.cpu.dcache.ReadReq_misses::total         80216                       # number of ReadReq misses
system.cpu.dcache.ReadReq_miss_latency::.cpu.data   6899929500                       # number of ReadReq miss cycles
system.cpu.dcache.ReadReq_miss_latency::total   6899929500                       # number of ReadReq miss cycles
system.cpu.dcache.ReadReq_accesses::.cpu.data     26073871                       # number of ReadReq accesses(hits+misses)
system.cpu.dcache.ReadReq_accesses::total     26073871                       # number of ReadReq accesses(hits+misses)
system.cpu.dcache.ReadReq_miss_rate::.cpu.data     0.003076                       # miss rate for ReadReq accesses
system.cpu.dcache.ReadReq_miss_rate::total     0.003076                       # miss rate for ReadReq accesses
system.cpu.dcache.ReadReq_avg_miss_latency::.cpu.data 86016.873192                       # average ReadReq miss latency
system.cpu.dcache.ReadReq_avg_miss_latency::total 86016.873192                       # average ReadReq miss latency
system.cpu.dcache.ReadReq_mshr_misses::.cpu.data        80216                       # number of ReadReq MSHR misses
system.cpu.dcache.ReadReq_mshr_misses::total        80216                       # number of ReadReq MSHR misses
system.cpu.dcache.ReadReq_mshr_miss_latency::.cpu.data   6819713500                       # number of ReadReq MSHR miss cycles
system.cpu.dcache.ReadReq_mshr_miss_latency::total   6819713500                       # number of ReadReq MSHR miss cycles
system.cpu.dcache.ReadReq_mshr_miss_rate::.cpu.data     0.003076                       # mshr miss rate for ReadReq accesses
system.cpu.dcache.ReadReq_mshr_miss_rate::total     0.003076                       # mshr miss rate for ReadReq accesses
system.cpu.dcache.ReadReq_avg_mshr_miss_latency::.cpu.data 85016.873192                       # average ReadReq mshr miss latency
system.cpu.dcache.ReadReq_avg_mshr_miss_latency::total 85016.873192                       # average ReadReq mshr miss latency
system.cpu.dcache.WriteReq_hits::.cpu.data      9946205                       # number of WriteReq hits
system.cpu.dcache.WriteReq_hits::total        9946205                       # number of WriteReq hits
system.cpu.dcache.WriteReq_misses::.cpu.data       111397                       # number of WriteReq misses
system.cpu.dcache.WriteReq_misses::total       111397                       # number of WriteReq misses
system.cpu.dcache.WriteReq_miss_latency::.cpu.data   8671800500                       # number of WriteReq miss cycles
system.cpu.dcache.WriteReq_miss_latency::total   8671800500                       # number of WriteReq miss cycles
system.cpu.dcache.WriteReq_accesses::.cpu.data     10057602                       # number of WriteReq accesses(hits+misses)
system.cpu.dcache.WriteReq_accesses::total     10057602                       # number of WriteReq accesses(hits+misses)
system.cpu.dcache.WriteReq_miss_rate::.cpu.data     0.011076                       # miss rate for WriteReq accesses
system.cpu.dcache.WriteReq_miss_rate::total     0.011076                       # miss rate for WriteReq accesses
system.cpu.dcache.WriteReq_avg_miss_latency::.cpu.data 77845.906981                       # average WriteReq miss latency
system.cpu.dcache.WriteReq_avg_miss_latency::total 77845.906981                       # average WriteReq miss latency
system.cpu.dcache.WriteReq_mshr_misses::.cpu.data       111397                       # number of WriteReq MSHR misses
system.cpu.dcache.WriteReq_mshr_misses::total       111397                       # number of WriteReq MSHR misses
system.cpu.dcache.WriteReq_mshr_miss_latency::.cpu.data   8560403500                       # number of WriteReq MSHR miss cycles
system.cpu.dcache.WriteReq_mshr_miss_latency::total   8560403500                       # number of WriteReq MSHR miss cycles
system.cpu.dcache.WriteReq_mshr_miss_rate::.cpu.data     0.011076                       # mshr miss rate for WriteReq accesses
system.cpu.dcache.WriteReq_mshr_miss_rate::total     0.011076                       # mshr miss rate for WriteReq accesses
system.cpu.dcache.WriteReq_avg_mshr_miss_latency::.cpu.data 76845.906981                       # average WriteReq mshr miss latency
system.cpu.dcache.WriteReq_avg_mshr_miss_latency::total 76845.906981                       # average WriteReq mshr miss latency
system.cpu.dcache.power_state.pwrStateResidencyTicks::UNDEFINED 137370476500                       # Cumulative time (in ticks) in various power states
system.cpu.dcache.tags.tagsinuse          4081.785447                       # Cycle average of tags in use
system.cpu.dcache.tags.total_refs            36131473                       # Total number of references to valid blocks.
system.cpu.dcache.tags.sampled_refs            191613                       # Sample count of references to valid blocks.
system.cpu.dcache.tags.avg_refs            188.564831                       # Average number of references to valid blocks.
system.cpu.dcache.tags.warmup_cycle            174500                       # Cycle when the warmup percentage was hit.
system.cpu.dcache.tags.occ_blocks::.cpu.data  4081.785447                       # Average occupied blocks per requestor
system.cpu.dcache.tags.occ_percent::.cpu.data     0.996530                       # Average percentage of cache occupancy
system.cpu.dcache.tags.occ_percent::total     0.996530                       # Average percentage of cache occupancy
system.cpu.dcache.tags.occ_task_id_blocks::1024         4096                       # Occupied blocks per task id
system.cpu.dcache.tags.age_task_id_blocks_1024::0           35                       # Occupied blocks per task id
system.cpu.dcache.tags.age_task_id_blocks_1024::1          418                       # Occupied blocks per task id
system.cpu.dcache.tags.age_task_id_blocks_1024::2         3640                       # Occupied blocks per task id
system.cpu.dcache.tags.age_task_id_blocks_1024::3            3                       # Occupied blocks per task id
system.cpu.dcache.tags.occ_task_id_percent::1024            1                       # Percentage of cache occupancy per task id
system.cpu.dcache.tags.tag_accesses          72454559                       # Number of tag accesses
system.cpu.dcache.tags.data_accesses         72454559                       # Number of data accesses
system.cpu.dcache.tags.power_state.pwrStateResidencyTicks::UNDEFINED 137370476500                       # Cumulative time (in ticks) in various power states
system.cpu.dtb.rdAccesses                    26074093                       # TLB accesses on read requests
system.cpu.dtb.wrAccesses                    10058350                       # TLB accesses on write requests
system.cpu.dtb.rdMisses                          1987                       # TLB misses on read requests
system.cpu.dtb.wrMisses                          1560                       # TLB misses on write requests
system.cpu.dtb.walker.power_state.pwrStateResidencyTicks::UNDEFINED 137370476500                       # Cumulative time (in ticks) in various power states
system.cpu.dtb_walker_cache.blocked_cycles::no_mshrs            0                       # number of cycles access was blocked
system.cpu.dtb_walker_cache.blocked_cycles::no_targets            0                       # number of cycles access was blocked
system.cpu.dtb_walker_cache.blocked::no_mshrs            0                       # number of cycles access was blocked
system.cpu.dtb_walker_cache.blocked::no_targets            0                       # number of cycles access was blocked
system.cpu.dtb_walker_cache.avg_blocked_cycles::no_mshrs          nan                       # average number of cycles each access was blocked
system.cpu.dtb_walker_cache.avg_blocked_cycles::no_targets          nan                       # average number of cycles each access was blocked
system.cpu.dtb_walker_cache.replacements            0                       # number of replacements
system.cpu.dtb_walker_cache.power_state.pwrStateResidencyTicks::UNDEFINED 137370476500                       # Cumulative time (in ticks) in various power states
system.cpu.dtb_walker_cache.tags.tagsinuse            0                       # Cycle average of tags in use
system.cpu.dtb_walker_cache.tags.total_refs            0                       # Total number of references to valid blocks.
system.cpu.dtb_walker_cache.tags.sampled_refs            0                       # Sample count of references to valid blocks.
system.cpu.dtb_walker_cache.tags.avg_refs          nan                       # Average number of references to valid blocks.
system.cpu.dtb_walker_cache.tags.warmup_cycle            0                       # Cycle when the warmup percentage was hit.
system.cpu.dtb_walker_cache.tags.tag_accesses            0                       # Number of tag accesses
system.cpu.dtb_walker_cache.tags.data_accesses            0                       # Number of data accesses
system.cpu.dtb_walker_cache.tags.power_state.pwrStateResidencyTicks::UNDEFINED 137370476500                       # Cumulative time (in ticks) in various power states
system.cpu.icache.demand_hits::.cpu.inst     85584570                       # number of demand (read+write) hits
system.cpu.icache.demand_hits::total         85584570                       # number of demand (read+write) hits
system.cpu.icache.overall_hits::.cpu.inst     85584570                       # number of overall hits
system.cpu.icache.overall_hits::total        85584570                       # number of overall hits
system.cpu.icache.demand_misses::.cpu.inst         3922                       # number of demand (read+write) misses
system.cpu.icache.demand_misses::total           3922                       # number of demand (read+write) misses
system.cpu.icache.overall_misses::.cpu.inst         3922                       # number of overall misses
system.cpu.icache.overall_misses::total          3922                       # number of overall misses
system.cpu.icache.demand_miss_latency::.cpu.inst    309092500                       # number of demand (read+write) miss cycles
system.cpu.icache.demand_miss_latency::total    309092500                       # number of demand (read+write) miss cycles
system.cpu.icache.overall_miss_latency::.cpu.inst    309092500                       # number of overall miss cycles
system.cpu.icache.overall_miss_latency::total    309092500                       # number of overall miss cycles
system.cpu.icache.demand_accesses::.cpu.inst     85588492                       # number of demand (read+write) accesses
system.cpu.icache.demand_accesses::total     85588492                       # number of demand (read+write) accesses
system.cpu.icache.overall_accesses::.cpu.inst     85588492                       # number of overall (read+write) accesses
system.cpu.icache.overall_accesses::total     85588492                       # number of overall (read+write) accesses
system.cpu.icache.demand_miss_rate::.cpu.inst     0.000046                       # miss rate for demand accesses
system.cpu.icache.demand_miss_rate::total     0.000046                       # miss rate for demand accesses
system.cpu.icache.overall_miss_rate::.cpu.inst     0.000046                       # miss rate for overall accesses
system.cpu.icache.overall_miss_rate::total     0.000046                       # miss rate for overall accesses
system.cpu.icache.demand_avg_miss_latency::.cpu.inst 78809.918409                       # average overall miss latency
system.cpu.icache.demand_avg_miss_latency::total 78809.918409                       # average overall miss latency
system.cpu.icache.overall_avg_miss_latency::.cpu.inst 78809.918409                       # average overall miss latency
system.cpu.icache.overall_avg_miss_latency::total 78809.918409                       # average overall miss latency
system.cpu.icache.blocked_cycles::no_mshrs            0                       # number of cycles access was blocked
system.cpu.icache.blocked_cycles::no_targets            0                       # number of cycles access was blocked
system.cpu.icache.blocked::no_mshrs                 0                       # number of cycles access was blocked
system.cpu.icache.blocked::no_targets               0                       # number of cycles access was blocked
system.cpu.icache.avg_blocked_cycles::no_mshrs          nan                       # average number of cycles each access was blocked
system.cpu.icache.avg_blocked_cycles::no_targets          nan                       # average number of cycles each access was blocked
system.cpu.icache.writebacks::.writebacks          233                       # number of writebacks
system.cpu.icache.writebacks::total               233                       # number of writebacks
system.cpu.icache.demand_mshr_misses::.cpu.inst         3922                       # number of demand (read+write) MSHR misses
system.cpu.icache.demand_mshr_misses::total         3922                       # number of demand (read+write) MSHR misses
system.cpu.icache.overall_mshr_misses::.cpu.inst         3922                       # number of overall MSHR misses
system.cpu.icache.overall_mshr_misses::total         3922                       # number of overall MSHR misses
system.cpu.icache.demand_mshr_miss_latency::.cpu.inst    305170500                       # number of demand (read+write) MSHR miss cycles
system.cpu.icache.demand_mshr_miss_latency::total    305170500                       # number of demand (read+write) MSHR miss cycles
system.cpu.icache.overall_mshr_miss_latency::.cpu.inst    305170500                       # number of overall MSHR miss cycles
system.cpu.icache.overall_mshr_miss_latency::total    305170500                       # number of overall MSHR miss cycles
system.cpu.icache.demand_mshr_miss_rate::.cpu.inst     0.000046                       # mshr miss rate for demand accesses
system.cpu.icache.demand_mshr_miss_rate::total     0.000046                       # mshr miss rate for demand accesses
system.cpu.icache.overall_mshr_miss_rate::.cpu.inst     0.000046                       # mshr miss rate for overall accesses
system.cpu.icache.overall_mshr_miss_rate::total     0.000046                       # mshr miss rate for overall accesses
system.cpu.icache.demand_avg_mshr_miss_latency::.cpu.inst 77809.918409                       # average overall mshr miss latency
system.cpu.icache.demand_avg_mshr_miss_latency::total 77809.918409                       # average overall mshr miss latency
system.cpu.icache.overall_avg_mshr_miss_latency::.cpu.inst 77809.918409                       # average overall mshr miss latency
system.cpu.icache.overall_avg_mshr_miss_latency::total 77809.918409                       # average overall mshr miss latency
system.cpu.icache.replacements                    233                       # number of replacements
system.cpu.icache.ReadReq_hits::.cpu.inst     85584570                       # number of ReadReq hits
system.cpu.icache.ReadReq_hits::total        85584570                       # number of ReadReq hits
system.cpu.icache.ReadReq_misses::.cpu.inst         3922                       # number of ReadReq misses
system.cpu.icache.ReadReq_misses::total          3922                       # number of ReadReq misses
system.cpu.icache.ReadReq_miss_latency::.cpu.inst    309092500                       # number of ReadReq miss cycles
system.cpu.icache.ReadReq_miss_latency::total    309092500                       # number of ReadReq miss cycles
system.cpu.icache.ReadReq_accesses::.cpu.inst     85588492                       # number of ReadReq accesses(hits+misses)
system.cpu.icache.ReadReq_accesses::total     85588492                       # number of ReadReq accesses(hits+misses)
system.cpu.icache.ReadReq_miss_rate::.cpu.inst     0.000046                       # miss rate for ReadReq accesses
system.cpu.icache.ReadReq_miss_rate::total     0.000046                       # miss rate for ReadReq accesses
system.cpu.icache.ReadReq_avg_miss_latency::.cpu.inst 78809.918409                       # average ReadReq miss latency
system.cpu.icache.ReadReq_avg_miss_latency::total 78809.918409                       # average ReadReq miss latency
system.cpu.icache.ReadReq_mshr_misses::.cpu.inst         3922                       # number of ReadReq MSHR misses
system.cpu.icache.ReadReq_mshr_misses::total         3922                       # number of ReadReq MSHR misses
system.cpu.icache.ReadReq_mshr_miss_latency::.cpu.inst    305170500                       # number of ReadReq MSHR miss cycles
system.cpu.icache.ReadReq_mshr_miss_latency::total    305170500                       # number of ReadReq MSHR miss cycles
system.cpu.icache.ReadReq_mshr_miss_rate::.cpu.inst     0.000046                       # mshr miss rate for ReadReq accesses
system.cpu.icache.ReadReq_mshr_miss_rate::total     0.000046                       # mshr miss rate for ReadReq accesses
system.cpu.icache.ReadReq_avg_mshr_miss_latency::.cpu.inst 77809.918409                       # average ReadReq mshr miss latency
system.cpu.icache.ReadReq_avg_mshr_miss_latency::total 77809.918409                       # average ReadReq mshr miss latency
system.cpu.icache.power_state.pwrStateResidencyTicks::UNDEFINED 137370476500                       # Cumulative time (in ticks) in various power states
system.cpu.icache.tags.tagsinuse          3146.793671                       # Cycle average of tags in use
system.cpu.icache.tags.total_refs            85588492                       # Total number of references to valid blocks.
system.cpu.icache.tags.sampled_refs              3922                       # Sample count of references to valid blocks.
system.cpu.icache.tags.avg_refs          21822.664967                       # Average number of references to valid blocks.
system.cpu.icache.tags.warmup_cycle             87500                       # Cycle when the warmup percentage was hit.
system.cpu.icache.tags.occ_blocks::.cpu.inst  3146.793671                       # Average occupied blocks per requestor
system.cpu.icache.tags.occ_percent::.cpu.inst     0.768260                       # Average percentage of cache occupancy
system.cpu.icache.tags.occ_percent::total     0.768260                       # Average percentage of cache occupancy
system.cpu.icache.tags.occ_task_id_blocks::1024         3689                       # Occupied blocks per task id
system.cpu.icache.tags.age_task_id_blocks_1024::0           58                       # Occupied blocks per task id
system.cpu.icache.tags.age_task_id_blocks_1024::1          354                       # Occupied blocks per task id
system.cpu.icache.tags.age_task_id_blocks_1024::2            9                       # Occupied blocks per task id
system.cpu.icache.tags.age_task_id_blocks_1024::3          218                       # Occupied blocks per task id
system.cpu.icache.tags.age_task_id_blocks_1024::4         3050                       # Occupied blocks per task id
system.cpu.icache.tags.occ_task_id_percent::1024     0.900635                       # Percentage of cache occupancy per task id
system.cpu.icache.tags.tag_accesses        1369419794                       # Number of tag accesses
system.cpu.icache.tags.data_accesses       1369419794                       # Number of data accesses
system.cpu.icache.tags.power_state.pwrStateResidencyTicks::UNDEFINED 137370476500                       # Cumulative time (in ticks) in various power states
system.cpu.interrupts.clk_domain.clock           8000                       # Clock period in ticks
system.cpu.itb.rdAccesses                           0                       # TLB accesses on read requests
system.cpu.itb.wrAccesses                    85588621                       # TLB accesses on write requests
system.cpu.itb.rdMisses                             0                       # TLB misses on read requests
system.cpu.itb.wrMisses                           542                       # TLB misses on write requests
system.cpu.itb.walker.power_state.pwrStateResidencyTicks::UNDEFINED 137370476500                       # Cumulative time (in ticks) in various power states
system.cpu.itb_walker_cache.blocked_cycles::no_mshrs            0                       # number of cycles access was blocked
system.cpu.itb_walker_cache.blocked_cycles::no_targets            0                       # number of cycles access was blocked
system.cpu.itb_walker_cache.blocked::no_mshrs            0                       # number of cycles access was blocked
system.cpu.itb_walker_cache.blocked::no_targets            0                       # number of cycles access was blocked
system.cpu.itb_walker_cache.avg_blocked_cycles::no_mshrs          nan                       # average number of cycles each access was blocked
system.cpu.itb_walker_cache.avg_blocked_cycles::no_targets          nan                       # average number of cycles each access was blocked
system.cpu.itb_walker_cache.replacements            0                       # number of replacements
system.cpu.itb_walker_cache.power_state.pwrStateResidencyTicks::UNDEFINED 137370476500                       # Cumulative time (in ticks) in various power states
system.cpu.itb_walker_cache.tags.tagsinuse            0                       # Cycle average of tags in use
system.cpu.itb_walker_cache.tags.total_refs            0                       # Total number of references to valid blocks.
system.cpu.itb_walker_cache.tags.sampled_refs            0                       # Sample count of references to valid blocks.
system.cpu.itb_walker_cache.tags.avg_refs          nan                       # Average number of references to valid blocks.
system.cpu.itb_walker_cache.tags.warmup_cycle            0                       # Cycle when the warmup percentage was hit.
system.cpu.itb_walker_cache.tags.tag_accesses            0                       # Number of tag accesses
system.cpu.itb_walker_cache.tags.data_accesses            0                       # Number of data accesses
system.cpu.itb_walker_cache.tags.power_state.pwrStateResidencyTicks::UNDEFINED 137370476500                       # Cumulative time (in ticks) in various power states
system.cpu.power_state.pwrStateResidencyTicks::ON 137370476500                       # Cumulative time (in ticks) in various power states
system.cpu.thread_0.numInsts                        0                       # Number of Instructions committed
system.cpu.thread_0.numOps                          0                       # Number of Ops committed
system.cpu.thread_0.numMemRefs                      0                       # Number of Memory References
system.cpu_clk_domain.clock                       500                       # Clock period in ticks
system.cpu_voltage_domain.voltage                   1                       # Voltage in Volts
system.l2.demand_hits::.cpu.data                 4338                       # number of demand (read+write) hits
system.l2.demand_hits::total                     4338                       # number of demand (read+write) hits
system.l2.overall_hits::.cpu.data                4338                       # number of overall hits
system.l2.overall_hits::total                    4338                       # number of overall hits
system.l2.demand_misses::.cpu.inst               3922                       # number of demand (read+write) misses
system.l2.demand_misses::.cpu.data             187275                       # number of demand (read+write) misses
system.l2.demand_misses::total                 191197                       # number of demand (read+write) misses
system.l2.overall_misses::.cpu.inst              3922                       # number of overall misses
system.l2.overall_misses::.cpu.data            187275                       # number of overall misses
system.l2.overall_misses::total                191197                       # number of overall misses
system.l2.demand_miss_latency::.cpu.inst    299287500                       # number of demand (read+write) miss cycles
system.l2.demand_miss_latency::.cpu.data  15047098500                       # number of demand (read+write) miss cycles
system.l2.demand_miss_latency::total      15346386000                       # number of demand (read+write) miss cycles
system.l2.overall_miss_latency::.cpu.inst    299287500                       # number of overall miss cycles
system.l2.overall_miss_latency::.cpu.data  15047098500                       # number of overall miss cycles
system.l2.overall_miss_latency::total     15346386000                       # number of overall miss cycles
system.l2.demand_accesses::.cpu.inst             3922                       # number of demand (read+write) accesses
system.l2.demand_accesses::.cpu.data           191613                       # number of demand (read+write) accesses
system.l2.demand_accesses::total               195535                       # number of demand (read+write) accesses
system.l2.overall_accesses::.cpu.inst            3922                       # number of overall (read+write) accesses
system.l2.overall_accesses::.cpu.data          191613                       # number of overall (read+write) accesses
system.l2.overall_accesses::total              195535                       # number of overall (read+write) accesses
system.l2.demand_miss_rate::.cpu.inst               1                       # miss rate for demand accesses
system.l2.demand_miss_rate::.cpu.data        0.977361                       # miss rate for demand accesses
system.l2.demand_miss_rate::total            0.977815                       # miss rate for demand accesses
system.l2.overall_miss_rate::.cpu.inst              1                       # miss rate for overall accesses
system.l2.overall_miss_rate::.cpu.data       0.977361                       # miss rate for overall accesses
system.l2.overall_miss_rate::total           0.977815                       # miss rate for overall accesses
system.l2.demand_avg_miss_latency::.cpu.inst 76309.918409                       # average overall miss latency
system.l2.demand_avg_miss_latency::.cpu.data 80347.609131                       # average overall miss latency
system.l2.demand_avg_miss_latency::total 80264.784489                       # average overall miss latency
system.l2.overall_avg_miss_latency::.cpu.inst 76309.918409                       # average overall miss latency
system.l2.overall_avg_miss_latency::.cpu.data 80347.609131                       # average overall miss latency
system.l2.overall_avg_miss_latency::total 80264.784489                       # average overall miss latency
system.l2.blocked_cycles::no_mshrs                  0                       # number of cycles access was blocked
system.l2.blocked_cycles::no_targets                0                       # number of cycles access was blocked
system.l2.blocked::no_mshrs                         0                       # number of cycles access was blocked
system.l2.blocked::no_targets                       0                       # number of cycles access was blocked
system.l2.avg_blocked_cycles::no_mshrs            nan                       # average number of cycles each access was blocked
system.l2.avg_blocked_cycles::no_targets          nan                       # average number of cycles each access was blocked
system.l2.writebacks::.writebacks              147599                       # number of writebacks
system.l2.writebacks::total                    147599                       # number of writebacks
system.l2.demand_mshr_misses::.cpu.inst          3922                       # number of demand (read+write) MSHR misses
system.l2.demand_mshr_misses::.cpu.data        187275                       # number of demand (read+write) MSHR misses
system.l2.demand_mshr_misses::total            191197                       # number of demand (read+write) MSHR misses
system.l2.overall_mshr_misses::.cpu.inst         3922                       # number of overall MSHR misses
system.l2.overall_mshr_misses::.cpu.data       187275                       # number of overall MSHR misses
system.l2.overall_mshr_misses::total           191197                       # number of overall MSHR misses
system.l2.demand_mshr_miss_latency::.cpu.inst    260067500                       # number of demand (read+write) MSHR miss cycles
system.l2.demand_mshr_miss_latency::.cpu.data  13174348500                       # number of demand (read+write) MSHR miss cycles
system.l2.demand_mshr_miss_latency::total  13434416000                       # number of demand (read+write) MSHR miss cycles
system.l2.overall_mshr_miss_latency::.cpu.inst    260067500                       # number of overall MSHR miss cycles
system.l2.overall_mshr_miss_latency::.cpu.data  13174348500                       # number of overall MSHR miss cycles
system.l2.overall_mshr_miss_latency::total  13434416000                       # number of overall MSHR miss cycles
system.l2.demand_mshr_miss_rate::.cpu.inst            1                       # mshr miss rate for demand accesses
system.l2.demand_mshr_miss_rate::.cpu.data     0.977361                       # mshr miss rate for demand accesses
system.l2.demand_mshr_miss_rate::total       0.977815                       # mshr miss rate for demand accesses
system.l2.overall_mshr_miss_rate::.cpu.inst            1                       # mshr miss rate for overall accesses
system.l2.overall_mshr_miss_rate::.cpu.data     0.977361                       # mshr miss rate for overall accesses
system.l2.overall_mshr_miss_rate::total      0.977815                       # mshr miss rate for overall accesses
system.l2.demand_avg_mshr_miss_latency::.cpu.inst 66309.918409                       # average overall mshr miss latency
system.l2.demand_avg_mshr_miss_latency::.cpu.data 70347.609131                       # average overall mshr miss latency
system.l2.demand_avg_mshr_miss_latency::total 70264.784489                       # average overall mshr miss latency
system.l2.overall_avg_mshr_miss_latency::.cpu.inst 66309.918409                       # average overall mshr miss latency
system.l2.overall_avg_mshr_miss_latency::.cpu.data 70347.609131                       # average overall mshr miss latency
system.l2.overall_avg_mshr_miss_latency::total 70264.784489                       # average overall mshr miss latency
system.l2.replacements                         338655                       # number of replacements
system.l2.WritebackDirty_hits::.writebacks       153779                       # number of WritebackDirty hits
system.l2.WritebackDirty_hits::total           153779                       # number of WritebackDirty hits
system.l2.WritebackDirty_accesses::.writebacks       153779                       # number of WritebackDirty accesses(hits+misses)
system.l2.WritebackDirty_accesses::total       153779                       # number of WritebackDirty accesses(hits+misses)
system.l2.WritebackClean_hits::.writebacks          233                       # number of WritebackClean hits
system.l2.WritebackClean_hits::total              233                       # number of WritebackClean hits
system.l2.WritebackClean_accesses::.writebacks          233                       # number of WritebackClean accesses(hits+misses)
system.l2.WritebackClean_accesses::total          233                       # number of WritebackClean accesses(hits+misses)
system.l2.CleanEvict_mshr_misses::.writebacks        32468                       # number of CleanEvict MSHR misses
system.l2.CleanEvict_mshr_misses::total         32468                       # number of CleanEvict MSHR misses
system.l2.CleanEvict_mshr_miss_rate::.writebacks          inf                       # mshr miss rate for CleanEvict accesses
system.l2.CleanEvict_mshr_miss_rate::total          inf                       # mshr miss rate for CleanEvict accesses
system.l2.ReadExReq_hits::.cpu.data               795                       # number of ReadExReq hits
system.l2.ReadExReq_hits::total                   795                       # number of ReadExReq hits
system.l2.ReadExReq_misses::.cpu.data          110602                       # number of ReadExReq misses
system.l2.ReadExReq_misses::total              110602                       # number of ReadExReq misses
system.l2.ReadExReq_miss_latency::.cpu.data   8384959500                       # number of ReadExReq miss cycles
system.l2.ReadExReq_miss_latency::total    8384959500                       # number of ReadExReq miss cycles
system.l2.ReadExReq_accesses::.cpu.data        111397                       # number of ReadExReq accesses(hits+misses)
system.l2.ReadExReq_accesses::total            111397                       # number of ReadExReq accesses(hits+misses)
system.l2.ReadExReq_miss_rate::.cpu.data     0.992863                       # miss rate for ReadExReq accesses
system.l2.ReadExReq_miss_rate::total         0.992863                       # miss rate for ReadExReq accesses
system.l2.ReadExReq_avg_miss_latency::.cpu.data 75812.006112                       # average ReadExReq miss latency
system.l2.ReadExReq_avg_miss_latency::total 75812.006112                       # average ReadExReq miss latency
system.l2.ReadExReq_mshr_misses::.cpu.data       110602                       # number of ReadExReq MSHR misses
system.l2.ReadExReq_mshr_misses::total         110602                       # number of ReadExReq MSHR misses
system.l2.ReadExReq_mshr_miss_latency::.cpu.data   7278939500                       # number of ReadExReq MSHR miss cycles
system.l2.ReadExReq_mshr_miss_latency::total   7278939500                       # number of ReadExReq MSHR miss cycles
system.l2.ReadExReq_mshr_miss_rate::.cpu.data     0.992863                       # mshr miss rate for ReadExReq accesses
system.l2.ReadExReq_mshr_miss_rate::total     0.992863                       # mshr miss rate for ReadExReq accesses
system.l2.ReadExReq_avg_mshr_miss_latency::.cpu.data 65812.006112                       # average ReadExReq mshr miss latency
system.l2.ReadExReq_avg_mshr_miss_latency::total 65812.006112                       # average ReadExReq mshr miss latency
system.l2.ReadCleanReq_misses::.cpu.inst         3922                       # number of ReadCleanReq misses
system.l2.ReadCleanReq_misses::total             3922                       # number of ReadCleanReq misses
system.l2.ReadCleanReq_miss_latency::.cpu.inst    299287500                       # number of ReadCleanReq miss cycles
system.l2.ReadCleanReq_miss_latency::total    299287500                       # number of ReadCleanReq miss cycles
system.l2.ReadCleanReq_accesses::.cpu.inst         3922                       # number of ReadCleanReq accesses(hits+misses)
system.l2.ReadCleanReq_accesses::total           3922                       # number of ReadCleanReq accesses(hits+misses)
system.l2.ReadCleanReq_miss_rate::.cpu.inst            1                       # miss rate for ReadCleanReq accesses
system.l2.ReadCleanReq_miss_rate::total             1                       # miss rate for ReadCleanReq accesses
system.l2.ReadCleanReq_avg_miss_latency::.cpu.inst 76309.918409                       # average ReadCleanReq miss latency
system.l2.ReadCleanReq_avg_miss_latency::total 76309.918409                       # average ReadCleanReq miss latency
system.l2.ReadCleanReq_mshr_misses::.cpu.inst         3922                       # number of ReadCleanReq MSHR misses
system.l2.ReadCleanReq_mshr_misses::total         3922                       # number of ReadCleanReq MSHR misses
system.l2.ReadCleanReq_mshr_miss_latency::.cpu.inst    260067500                       # number of ReadCleanReq MSHR miss cycles
system.l2.ReadCleanReq_mshr_miss_latency::total    260067500                       # number of ReadCleanReq MSHR miss cycles
system.l2.ReadCleanReq_mshr_miss_rate::.cpu.inst            1                       # mshr miss rate for ReadCleanReq accesses
system.l2.ReadCleanReq_mshr_miss_rate::total            1                       # mshr miss rate for ReadCleanReq accesses
system.l2.ReadCleanReq_avg_mshr_miss_latency::.cpu.inst 66309.918409                       # average ReadCleanReq mshr miss latency
system.l2.ReadCleanReq_avg_mshr_miss_latency::total 66309.918409                       # average ReadCleanReq mshr miss latency
system.l2.ReadSharedReq_hits::.cpu.data          3543                       # number of ReadSharedReq hits
system.l2.ReadSharedReq_hits::total              3543                       # number of ReadSharedReq hits
system.l2.ReadSharedReq_misses::.cpu.data        76673                       # number of ReadSharedReq misses
system.l2.ReadSharedReq_misses::total           76673                       # number of ReadSharedReq misses
system.l2.ReadSharedReq_miss_latency::.cpu.data   6662139000                       # number of ReadSharedReq miss cycles
system.l2.ReadSharedReq_miss_latency::total   6662139000                       # number of ReadSharedReq miss cycles
system.l2.ReadSharedReq_accesses::.cpu.data        80216                       # number of ReadSharedReq accesses(hits+misses)
system.l2.ReadSharedReq_accesses::total         80216                       # number of ReadSharedReq accesses(hits+misses)
system.l2.ReadSharedReq_miss_rate::.cpu.data     0.955832                       # miss rate for ReadSharedReq accesses
system.l2.ReadSharedReq_miss_rate::total     0.955832                       # miss rate for ReadSharedReq accesses
system.l2.ReadSharedReq_avg_miss_latency::.cpu.data 86890.287324                       # average ReadSharedReq miss latency
system.l2.ReadSharedReq_avg_miss_latency::total 86890.287324                       # average ReadSharedReq miss latency
system.l2.ReadSharedReq_mshr_misses::.cpu.data        76673                       # number of ReadSharedReq MSHR misses
system.l2.ReadSharedReq_mshr_misses::total        76673                       # number of ReadSharedReq MSHR misses
system.l2.ReadSharedReq_mshr_miss_latency::.cpu.data   5895409000                       # number of ReadSharedReq MSHR miss cycles
system.l2.ReadSharedReq_mshr_miss_latency::total   5895409000                       # number of ReadSharedReq MSHR miss cycles
system.l2.ReadSharedReq_mshr_miss_rate::.cpu.data     0.955832                       # mshr miss rate for ReadSharedReq accesses
system.l2.ReadSharedReq_mshr_miss_rate::total     0.955832                       # mshr miss rate for ReadSharedReq accesses
system.l2.ReadSharedReq_avg_mshr_miss_latency::.cpu.data 76890.287324                       # average ReadSharedReq mshr miss latency
system.l2.ReadSharedReq_avg_mshr_miss_latency::total 76890.287324                       # average ReadSharedReq mshr miss latency
system.l2.power_state.pwrStateResidencyTicks::UNDEFINED 137370476500                       # Cumulative time (in ticks) in various power states
system.l2.tags.tagsinuse                  4085.881895                       # Cycle average of tags in use
system.l2.tags.total_refs                      350817                       # Total number of references to valid blocks.
system.l2.tags.sampled_refs                    342751                       # Sample count of references to valid blocks.
system.l2.tags.avg_refs                      1.023533                       # Average number of references to valid blocks.
system.l2.tags.warmup_cycle                     77000                       # Cycle when the warmup percentage was hit.
system.l2.tags.occ_blocks::.writebacks    1925.487018                       # Average occupied blocks per requestor
system.l2.tags.occ_blocks::.cpu.inst        36.019965                       # Average occupied blocks per requestor
system.l2.tags.occ_blocks::.cpu.data      2124.374911                       # Average occupied blocks per requestor
system.l2.tags.occ_percent::.writebacks      0.470090                       # Average percentage of cache occupancy
system.l2.tags.occ_percent::.cpu.inst        0.008794                       # Average percentage of cache occupancy
system.l2.tags.occ_percent::.cpu.data        0.518646                       # Average percentage of cache occupancy
system.l2.tags.occ_percent::total            0.997530                       # Average percentage of cache occupancy
system.l2.tags.occ_task_id_blocks::1024          4096                       # Occupied blocks per task id
system.l2.tags.age_task_id_blocks_1024::0          156                       # Occupied blocks per task id
system.l2.tags.age_task_id_blocks_1024::1         1093                       # Occupied blocks per task id
system.l2.tags.age_task_id_blocks_1024::2         2847                       # Occupied blocks per task id
system.l2.tags.occ_task_id_percent::1024            1                       # Percentage of cache occupancy per task id
system.l2.tags.tag_accesses                   1109321                       # Number of tag accesses
system.l2.tags.data_accesses                  1109321                       # Number of data accesses
system.l2.tags.power_state.pwrStateResidencyTicks::UNDEFINED 137370476500                       # Cumulative time (in ticks) in various power states
system.mem_ctrls.avgPriority_.writebacks::samples     77559.00                       # Average QoS priority value for accepted requests
system.mem_ctrls.avgPriority_.cpu.inst::samples      3922.00                       # Average QoS priority value for accepted requests
system.mem_ctrls.avgPriority_.cpu.data::samples    184169.00                       # Average QoS priority value for accepted requests
system.mem_ctrls.priorityMinLatency      0.000000018750                       # per QoS priority minimum request to response latency (s)
system.mem_ctrls.priorityMaxLatency      0.032592584500                       # per QoS priority maximum request to response latency (s)
system.mem_ctrls.numReadWriteTurnArounds         4363                       # Number of turnarounds from READ to WRITE
system.mem_ctrls.numWriteReadTurnArounds         4363                       # Number of turnarounds from WRITE to READ
system.mem_ctrls.numStayReadState              558194                       # Number of times bus staying in READ state
system.mem_ctrls.numStayWriteState              73257                       # Number of times bus staying in WRITE state
system.mem_ctrls.readReqs                      191197                       # Number of read requests accepted
system.mem_ctrls.writeReqs                     147599                       # Number of write requests accepted
system.mem_ctrls.readBursts                    191197                       # Number of controller read bursts, including those serviced by the write queue
system.mem_ctrls.writeBursts                   147599                       # Number of controller write bursts, including those merged in the write queue
system.mem_ctrls.servicedByWrQ                   3106                       # Number of controller read bursts serviced by the write queue
system.mem_ctrls.mergedWrBursts                 70040                       # Number of controller write bursts merged with an existing one
system.mem_ctrls.neitherReadNorWriteReqs            0                       # Number of requests that are neither read nor write
system.mem_ctrls.avgRdQLen                       1.00                       # Average read queue length when enqueuing
system.mem_ctrls.avgWrQLen                      24.38                       # Average write queue length when enqueuing
system.mem_ctrls.numRdRetry                         0                       # Number of times read queue was full causing retry
system.mem_ctrls.numWrRetry                         0                       # Number of times write queue was full causing retry
system.mem_ctrls.readPktSize::0                     0                       # Read request sizes (log2)
system.mem_ctrls.readPktSize::1                     0                       # Read request sizes (log2)
system.mem_ctrls.readPktSize::2                     0                       # Read request sizes (log2)
system.mem_ctrls.readPktSize::3                     0                       # Read request sizes (log2)
system.mem_ctrls.readPktSize::4                     0                       # Read request sizes (log2)
system.mem_ctrls.readPktSize::5                191197                       # Read request sizes (log2)
system.mem_ctrls.writePktSize::0                    0                       # Write request sizes (log2)
system.mem_ctrls.writePktSize::1                    0                       # Write request sizes (log2)
system.mem_ctrls.writePktSize::2                    0                       # Write request sizes (log2)
system.mem_ctrls.writePktSize::3                    0                       # Write request sizes (log2)
system.mem_ctrls.writePktSize::4                    0                       # Write request sizes (log2)
system.mem_ctrls.writePktSize::5               147599                       # Write request sizes (log2)
system.mem_ctrls.rdQLenPdf::0                  188070                       # What read queue length does an incoming req see
system.mem_ctrls.rdQLenPdf::1                      21                       # What read queue length does an incoming req see
system.mem_ctrls.rdQLenPdf::2                       0                       # What read queue length does an incoming req see
system.mem_ctrls.rdQLenPdf::3                       0                       # What read queue length does an incoming req see
system.mem_ctrls.rdQLenPdf::4                       0                       # What read queue length does an incoming req see
system.mem_ctrls.rdQLenPdf::5                       0                       # What read queue length does an incoming req see
system.mem_ctrls.rdQLenPdf::6                       0                       # What read queue length does an incoming req see
system.mem_ctrls.rdQLenPdf::7                       0                       # What read queue length does an incoming req see
system.mem_ctrls.rdQLenPdf::8                       0                       # What read queue length does an incoming req see
system.mem_ctrls.rdQLenPdf::9                       0                       # What read queue length does an incoming req see
system.mem_ctrls.rdQLenPdf::10                      0                       # What read queue length does an incoming req see
system.mem_ctrls.rdQLenPdf::11                      0                       # What read queue length does an incoming req see
system.mem_ctrls.rdQLenPdf::12                      0                       # What read queue length does an incoming req see
system.mem_ctrls.rdQLenPdf::13                      0                       # What read queue length does an incoming req see
system.mem_ctrls.rdQLenPdf::14                      0                       # What read queue length does an incoming req see
system.mem_ctrls.rdQLenPdf::15                      0                       # What read queue length does an incoming req see
system.mem_ctrls.rdQLenPdf::16                      0                       # What read queue length does an incoming req see
system.mem_ctrls.rdQLenPdf::17                      0                       # What read queue length does an incoming req see
system.mem_ctrls.rdQLenPdf::18                      0                       # What read queue length does an incoming req see
system.mem_ctrls.rdQLenPdf::19                      0                       # What read queue length does an incoming req see
system.mem_ctrls.rdQLenPdf::20                      0                       # What read queue length does an incoming req see
system.mem_ctrls.rdQLenPdf::21                      0                       # What read queue length does an incoming req see
system.mem_ctrls.rdQLenPdf::22                      0                       # What read queue length does an incoming req see
system.mem_ctrls.rdQLenPdf::23                      0                       # What read queue length does an incoming req see
system.mem_ctrls.rdQLenPdf::24                      0                       # What read queue length does an incoming req see
system.mem_ctrls.rdQLenPdf::25                      0                       # What read queue length does an incoming req see
system.mem_ctrls.rdQLenPdf::26                      0                       # What read queue length does an incoming req see
system.mem_ctrls.rdQLenPdf::27                      0                       # What read queue length does an incoming req see
system.mem_ctrls.rdQLenPdf::28                      0                       # What read queue length does an incoming req see
system.mem_ctrls.rdQLenPdf::29                      0                       # What read queue length does an incoming req see
system.mem_ctrls.rdQLenPdf::30                      0                       # What read queue length does an incoming req see
system.mem_ctrls.rdQLenPdf::31                      0                       # What read queue length does an incoming req see
system.mem_ctrls.wrQLenPdf::0                       1                       # What write queue length does an incoming req see
system.mem_ctrls.wrQLenPdf::1                       1                       # What write queue length does an incoming req see
system.mem_ctrls.wrQLenPdf::2                       1                       # What write queue length does an incoming req see
system.mem_ctrls.wrQLenPdf::3                       1                       # What write queue length does an incoming req see
system.mem_ctrls.wrQLenPdf::4                       1                       # What write queue length does an incoming req see
system.mem_ctrls.wrQLenPdf::5                       1                       # What write queue length does an incoming req see
system.mem_ctrls.wrQLenPdf::6                       1                       # What write queue length does an incoming req see
system.mem_ctrls.wrQLenPdf::7                       1                       # What write queue length does an incoming req see
system.mem_ctrls.wrQLenPdf::8                       1                       # What write queue length does an incoming req see
system.mem_ctrls.wrQLenPdf::9                       1                       # What write queue length does an incoming req see
system.mem_ctrls.wrQLenPdf::10                      1                       # What write queue length does an incoming req see
system.mem_ctrls.wrQLenPdf::11                      1                       # What write queue length does an incoming req see
system.mem_ctrls.wrQLenPdf::12                      1                       # What write queue length does an incoming req see
system.mem_ctrls.wrQLenPdf::13                      1                       # What write queue length does an incoming req see
system.mem_ctrls.wrQLenPdf::14                      1                       # What write queue length does an incoming req see
system.mem_ctrls.wrQLenPdf::15                   3850                       # What write queue length does an incoming req see
system.mem_ctrls.wrQLenPdf::16                   3869                       # What write queue length does an incoming req see
system.mem_ctrls.wrQLenPdf::17                   4363                       # What write queue length does an incoming req see
system.mem_ctrls.wrQLenPdf::18                   4365                       # What write queue length does an incoming req see
system.mem_ctrls.wrQLenPdf::19                   4364                       # What write queue length does an incoming req see
system.mem_ctrls.wrQLenPdf::20                   4364                       # What write queue length does an incoming req see
system.mem_ctrls.wrQLenPdf::21                   4365                       # What write queue length does an incoming req see
system.mem_ctrls.wrQLenPdf::22                   4364                       # What write queue length does an incoming req see
system.mem_ctrls.wrQLenPdf::23                   4364                       # What write queue length does an incoming req see
system.mem_ctrls.wrQLenPdf::24                   4364                       # What write queue length does an incoming req see
system.mem_ctrls.wrQLenPdf::25                   4364                       # What write queue length does an incoming req see
system.mem_ctrls.wrQLenPdf::26                   4364                       # What write queue length does an incoming req see
system.mem_ctrls.wrQLenPdf::27                   4364                       # What write queue length does an incoming req see
system.mem_ctrls.wrQLenPdf::28                   4364                       # What write queue length does an incoming req see
system.mem_ctrls.wrQLenPdf::29                   4365                       # What write queue length does an incoming req see
system.mem_ctrls.wrQLenPdf::30                   4364                       # What write queue length does an incoming req see
system.mem_ctrls.wrQLenPdf::31                   4364                       # What write queue length does an incoming req see
system.mem_ctrls.wrQLenPdf::32                   4363                       # What write queue length does an incoming req see
system.mem_ctrls.wrQLenPdf::33                      0                       # What write queue length does an incoming req see
system.mem_ctrls.wrQLenPdf::34                      0                       # What write queue length does an incoming req see
system.mem_ctrls.wrQLenPdf::35                      0                       # What write queue length does an incoming req see
system.mem_ctrls.wrQLenPdf::36                      0                       # What write queue length does an incoming req see
system.mem_ctrls.wrQLenPdf::37                      0                       # What write queue length does an incoming req see
system.mem_ctrls.wrQLenPdf::38                      0                       # What write queue length does an incoming req see
system.mem_ctrls.wrQLenPdf::39                      0                       # What write queue length does an incoming req see
system.mem_ctrls.wrQLenPdf::40                      0                       # What write queue length does an incoming req see
system.mem_ctrls.wrQLenPdf::41                      0                       # What write queue length does an incoming req see
system.mem_ctrls.wrQLenPdf::42                      0                       # What write queue length does an incoming req see
system.mem_ctrls.wrQLenPdf::43                      0                       # What write queue length does an incoming req see
system.mem_ctrls.wrQLenPdf::44                      0                       # What write queue length does an incoming req see
system.mem_ctrls.wrQLenPdf::45                      0                       # What write queue length does an incoming req see
system.mem_ctrls.wrQLenPdf::46                      0                       # What write queue length does an incoming req see
system.mem_ctrls.wrQLenPdf::47                      0                       # What write queue length does an incoming req see
system.mem_ctrls.wrQLenPdf::48                      0                       # What write queue length does an incoming req see
system.mem_ctrls.wrQLenPdf::49                      0                       # What write queue length does an incoming req see
system.mem_ctrls.wrQLenPdf::50                      0                       # What write queue length does an incoming req see
system.mem_ctrls.wrQLenPdf::51                      0                       # What write queue length does an incoming req see
system.mem_ctrls.wrQLenPdf::52                      0                       # What write queue length does an incoming req see
system.mem_ctrls.wrQLenPdf::53                      0                       # What write queue length does an incoming req see
system.mem_ctrls.wrQLenPdf::54                      0                       # What write queue length does an incoming req see
system.mem_ctrls.wrQLenPdf::55                      0                       # What write queue length does an incoming req see
system.mem_ctrls.wrQLenPdf::56                      0                       # What write queue length does an incoming req see
system.mem_ctrls.wrQLenPdf::57                      0                       # What write queue length does an incoming req see
system.mem_ctrls.wrQLenPdf::58                      0                       # What write queue length does an incoming req see
system.mem_ctrls.wrQLenPdf::59                      0                       # What write queue length does an incoming req see
system.mem_ctrls.wrQLenPdf::60                      0                       # What write queue length does an incoming req see
system.mem_ctrls.wrQLenPdf::61                      0                       # What write queue length does an incoming req see
system.mem_ctrls.wrQLenPdf::62                      0                       # What write queue length does an incoming req see
system.mem_ctrls.wrQLenPdf::63                      0                       # What write queue length does an incoming req see
system.mem_ctrls.rdPerTurnAround::samples         4363                       # Reads before turning the bus around for writes
system.mem_ctrls.rdPerTurnAround::mean      43.098098                       # Reads before turning the bus around for writes
system.mem_ctrls.rdPerTurnAround::gmean     37.513203                       # Reads before turning the bus around for writes
system.mem_ctrls.rdPerTurnAround::stdev     93.531668                       # Reads before turning the bus around for writes
system.mem_ctrls.rdPerTurnAround::0-255          4340     99.47%     99.47% # Reads before turning the bus around for writes
system.mem_ctrls.rdPerTurnAround::256-511           14      0.32%     99.79% # Reads before turning the bus around for writes
system.mem_ctrls.rdPerTurnAround::512-767            3      0.07%     99.86% # Reads before turning the bus around for writes
system.mem_ctrls.rdPerTurnAround::768-1023            1      0.02%     99.89% # Reads before turning the bus around for writes
system.mem_ctrls.rdPerTurnAround::1024-1279            2      0.05%     99.93% # Reads before turning the bus around for writes
system.mem_ctrls.rdPerTurnAround::1536-1791            1      0.02%     99.95% # Reads before turning the bus around for writes
system.mem_ctrls.rdPerTurnAround::3072-3327            1      0.02%     99.98% # Reads before turning the bus around for writes
system.mem_ctrls.rdPerTurnAround::4096-4351            1      0.02%    100.00% # Reads before turning the bus around for writes
system.mem_ctrls.rdPerTurnAround::total          4363                       # Reads before turning the bus around for writes
system.mem_ctrls.wrPerTurnAround::samples         4363                       # Writes before turning the bus around for reads
system.mem_ctrls.wrPerTurnAround::mean      17.769196                       # Writes before turning the bus around for reads
system.mem_ctrls.wrPerTurnAround::gmean     17.757031                       # Writes before turning the bus around for reads
system.mem_ctrls.wrPerTurnAround::stdev      0.638189                       # Writes before turning the bus around for reads
system.mem_ctrls.wrPerTurnAround::16              498     11.41%     11.41% # Writes before turning the bus around for reads
system.mem_ctrls.wrPerTurnAround::17               14      0.32%     11.74% # Writes before turning the bus around for reads
system.mem_ctrls.wrPerTurnAround::18             3848     88.20%     99.93% # Writes before turning the bus around for reads
system.mem_ctrls.wrPerTurnAround::19                3      0.07%    100.00% # Writes before turning the bus around for reads
system.mem_ctrls.wrPerTurnAround::total          4363                       # Writes before turning the bus around for reads
system.mem_ctrls.bytesReadWrQ                  198784                       # Total number of bytes read from write queue
system.mem_ctrls.bytesReadSys                 6118304                       # Total read bytes from the system interface side
system.mem_ctrls.bytesWrittenSys              4723168                       # Total written bytes from the system interface side
system.mem_ctrls.avgRdBWSys                     44.54                       # Average system read bandwidth in MiByte/s
system.mem_ctrls.avgWrBWSys                     34.38                       # Average system write bandwidth in MiByte/s
system.mem_ctrls.totGap                  137370402500                       # Total gap between requests
system.mem_ctrls.avgGap                     405466.42                       # Average gap between requests
system.mem_ctrls.requestorReadBytes::.cpu.inst       125504                       # Per-requestor bytes read from memory
system.mem_ctrls.requestorReadBytes::.cpu.data      5893408                       # Per-requestor bytes read from memory
system.mem_ctrls.requestorWriteBytes::.writebacks      2480864                       # Per-requestor bytes write to memory
[...]
system.mem_ctrls.dram.bw_total::.cpu.data     43625094                       # Total bandwidth to/from this memory (bytes/s)
system.mem_ctrls.dram.bw_total::total        78921412                       # Total bandwidth to/from this memory (bytes/s)
system.mem_ctrls.dram.readBursts               188091                       # Number of DRAM read bursts
system.mem_ctrls.dram.writeBursts               77527                       # Number of DRAM write bursts
system.mem_ctrls.dram.perBankRdBursts::0        12463                       # Per bank write bursts
system.mem_ctrls.dram.perBankRdBursts::1        12012                       # Per bank write bursts
system.mem_ctrls.dram.perBankRdBursts::2        11602                       # Per bank write bursts
system.mem_ctrls.dram.perBankRdBursts::3        12582                       # Per bank write bursts
system.mem_ctrls.dram.perBankRdBursts::4        11376                       # Per bank write bursts
system.mem_ctrls.dram.perBankRdBursts::5        11063                       # Per bank write bursts
system.mem_ctrls.dram.perBankRdBursts::6        11144                       # Per bank write bursts
system.mem_ctrls.dram.perBankRdBursts::7        11624                       # Per bank write bursts
system.mem_ctrls.dram.perBankRdBursts::8        11961                       # Per bank write bursts
system.mem_ctrls.dram.perBankRdBursts::9        12393                       # Per bank write bursts
system.mem_ctrls.dram.perBankRdBursts::10        12543                       # Per bank write bursts
system.mem_ctrls.dram.perBankRdBursts::11        11741                       # Per bank write bursts
system.mem_ctrls.dram.perBankRdBursts::12        11144                       # Per bank write bursts
system.mem_ctrls.dram.perBankRdBursts::13        11024                       # Per bank write bursts
system.mem_ctrls.dram.perBankRdBursts::14        11377                       # Per bank write bursts
system.mem_ctrls.dram.perBankRdBursts::15        12042                       # Per bank write bursts
system.mem_ctrls.dram.perBankWrBursts::0         5102                       # Per bank write bursts
system.mem_ctrls.dram.perBankWrBursts::1         4909                       # Per bank write bursts
system.mem_ctrls.dram.perBankWrBursts::2         4862                       # Per bank write bursts
system.mem_ctrls.dram.perBankWrBursts::3         5005                       # Per bank write bursts
system.mem_ctrls.dram.perBankWrBursts::4         4529                       # Per bank write bursts
system.mem_ctrls.dram.perBankWrBursts::5         4595                       # Per bank write bursts
system.mem_ctrls.dram.perBankWrBursts::6         4932                       # Per bank write bursts
system.mem_ctrls.dram.perBankWrBursts::7         4476                       # Per bank write bursts
system.mem_ctrls.dram.perBankWrBursts::8         5113                       # Per bank write bursts
system.mem_ctrls.dram.perBankWrBursts::9         5036                       # Per bank write bursts
system.mem_ctrls.dram.perBankWrBursts::10         5101                       # Per bank write bursts
system.mem_ctrls.dram.perBankWrBursts::11         4957                       # Per bank write bursts
system.mem_ctrls.dram.perBankWrBursts::12         4820                       # Per bank write bursts
system.mem_ctrls.dram.perBankWrBursts::13         4567                       # Per bank write bursts
system.mem_ctrls.dram.perBankWrBursts::14         4812                       # Per bank write bursts
system.mem_ctrls.dram.perBankWrBursts::15         4711                       # Per bank write bursts
system.mem_ctrls.dram.totQLat              2122507000                       # Total ticks spent queuing
system.mem_ctrls.dram.totBusLat             940455000                       # Total ticks spent in databus transfers
system.mem_ctrls.dram.totMemAccLat         5649213250                       # Total ticks spent from burst creation until serviced by the DRAM
system.mem_ctrls.dram.avgQLat                11284.47                       # Average queueing delay per DRAM burst
system.mem_ctrls.dram.avgBusLat               5000.00                       # Average bus latency per DRAM burst
system.mem_ctrls.dram.avgMemAccLat           30034.47                       # Average memory access latency per DRAM burst
system.mem_ctrls.dram.readRowHits              122264                       # Number of row buffer hits during reads
system.mem_ctrls.dram.writeRowHits              67391                       # Number of row buffer hits during writes
system.mem_ctrls.dram.readRowHitRate            65.00                       # Row buffer hit rate for reads
system.mem_ctrls.dram.writeRowHitRate           86.93                       # Row buffer hit rate for writes
system.mem_ctrls.dram.bytesPerActivate::samples        75955                       # Bytes accessed per row activation
system.mem_ctrls.dram.bytesPerActivate::mean   223.772918                       # Bytes accessed per row activation
system.mem_ctrls.dram.bytesPerActivate::gmean   130.878906                       # Bytes accessed per row activation
system.mem_ctrls.dram.bytesPerActivate::stdev   274.023933                       # Bytes accessed per row activation
system.mem_ctrls.dram.bytesPerActivate::0-127        43462     57.22%     57.22% # Bytes accessed per row activation
system.mem_ctrls.dram.bytesPerActivate::128-255         9031     11.89%     69.11% # Bytes accessed per row activation
system.mem_ctrls.dram.bytesPerActivate::256-383        11022     14.51%     83.62% # Bytes accessed per row activation
system.mem_ctrls.dram.bytesPerActivate::384-511         1487      1.96%     85.58% # Bytes accessed per row activation
system.mem_ctrls.dram.bytesPerActivate::512-639         2215      2.92%     88.50% # Bytes accessed per row activation
system.mem_ctrls.dram.bytesPerActivate::640-767         1937      2.55%     91.05% # Bytes accessed per row activation
system.mem_ctrls.dram.bytesPerActivate::768-895         1248      1.64%     92.69% # Bytes accessed per row activation
system.mem_ctrls.dram.bytesPerActivate::896-1023         1154      1.52%     94.21% # Bytes accessed per row activation
system.mem_ctrls.dram.bytesPerActivate::1024-1151         4399      5.79%    100.00% # Bytes accessed per row activation
system.mem_ctrls.dram.bytesPerActivate::total        75955                       # Bytes accessed per row activation
system.mem_ctrls.dram.bytesRead              12037824                       # Total number of bytes read from DRAM
system.mem_ctrls.dram.bytesWritten            4961728                       # Total number of bytes written to DRAM
system.mem_ctrls.dram.avgRdBW               87.630358                       # Average DRAM read bandwidth in MiBytes/s
system.mem_ctrls.dram.avgWrBW               36.119319                       # Average DRAM write bandwidth in MiBytes/s
system.mem_ctrls.dram.peakBW                 12800.00                       # Theoretical peak bandwidth in MiByte/s
system.mem_ctrls.dram.busUtil                    0.97                       # Data bus utilization in percentage
system.mem_ctrls.dram.busUtilRead                0.68                       # Data bus utilization in percentage for reads
system.mem_ctrls.dram.busUtilWrite               0.28                       # Data bus utilization in percentage for writes
system.mem_ctrls.dram.pageHitRate               71.40                       # Row buffer hit rate, read and write combined
system.mem_ctrls.dram.power_state.pwrStateResidencyTicks::UNDEFINED 137370476500                       # Cumulative time (in ticks) in various power states
system.mem_ctrls.dram.rank0.actEnergy       268785300                       # Energy for activate commands per rank (pJ)
system.mem_ctrls.dram.rank0.preEnergy       142851390                       # Energy for precharge commands per rank (pJ)
system.mem_ctrls.dram.rank0.readEnergy      670203240                       # Energy for read commands per rank (pJ)
system.mem_ctrls.dram.rank0.writeEnergy     200500200                       # Energy for write commands per rank (pJ)
system.mem_ctrls.dram.rank0.refreshEnergy 10843478880.000002                       # Energy for refresh commands per rank (pJ)
system.mem_ctrls.dram.rank0.actBackEnergy  24550063020                       # Energy for active background per rank (pJ)
system.mem_ctrls.dram.rank0.preBackEnergy  32076526080                       # Energy for precharge background per rank (pJ)
system.mem_ctrls.dram.rank0.actPowerDownEnergy            0                       # Energy for active power-down per rank (pJ)
system.mem_ctrls.dram.rank0.prePowerDownEnergy            0                       # Energy for precharge power-down per rank (pJ)
system.mem_ctrls.dram.rank0.selfRefreshEnergy            0                       # Energy for self refresh per rank (pJ)
system.mem_ctrls.dram.rank0.totalEnergy   68752408110                       # Total energy per rank (pJ)
system.mem_ctrls.dram.rank0.averagePower   500.488969                       # Core power per rank (mW)
system.mem_ctrls.dram.rank0.totalIdleTime            0                       # Total Idle time Per DRAM Rank
system.mem_ctrls.dram.rank0.pwrStateTime::IDLE  83007267750                       # Time in different power states
system.mem_ctrls.dram.rank0.pwrStateTime::REF   4586920000                       # Time in different power states
system.mem_ctrls.dram.rank0.pwrStateTime::SREF            0                       # Time in different power states
system.mem_ctrls.dram.rank0.pwrStateTime::PRE_PDN            0                       # Time in different power states
system.mem_ctrls.dram.rank0.pwrStateTime::ACT  49776288750                       # Time in different power states
system.mem_ctrls.dram.rank0.pwrStateTime::ACT_PDN            0                       # Time in different power states
system.mem_ctrls.dram.rank1.actEnergy       273590520                       # Energy for activate commands per rank (pJ)
system.mem_ctrls.dram.rank1.preEnergy       145397835                       # Energy for precharge commands per rank (pJ)
system.mem_ctrls.dram.rank1.readEnergy      672766500                       # Energy for read commands per rank (pJ)
system.mem_ctrls.dram.rank1.writeEnergy     204190740                       # Energy for write commands per rank (pJ)
system.mem_ctrls.dram.rank1.refreshEnergy 10843478880.000002                       # Energy for refresh commands per rank (pJ)
system.mem_ctrls.dram.rank1.actBackEnergy  25125649020                       # Energy for active background per rank (pJ)
system.mem_ctrls.dram.rank1.preBackEnergy  31591822080                       # Energy for precharge background per rank (pJ)
system.mem_ctrls.dram.rank1.actPowerDownEnergy            0                       # Energy for active power-down per rank (pJ)
system.mem_ctrls.dram.rank1.prePowerDownEnergy            0                       # Energy for precharge power-down per rank (pJ)
system.mem_ctrls.dram.rank1.selfRefreshEnergy            0                       # Energy for self refresh per rank (pJ)
system.mem_ctrls.dram.rank1.totalEnergy   68856895575                       # Total energy per rank (pJ)
system.mem_ctrls.dram.rank1.averagePower   501.249594                       # Core power per rank (mW)
system.mem_ctrls.dram.rank1.totalIdleTime            0                       # Total Idle time Per DRAM Rank
system.mem_ctrls.dram.rank1.pwrStateTime::IDLE  81683961750                       # Time in different power states
system.mem_ctrls.dram.rank1.pwrStateTime::REF   4586920000                       # Time in different power states
system.mem_ctrls.dram.rank1.pwrStateTime::SREF            0                       # Time in different power states
system.mem_ctrls.dram.rank1.pwrStateTime::PRE_PDN            0                       # Time in different power states
system.mem_ctrls.dram.rank1.pwrStateTime::ACT  51099594750                       # Time in different power states
system.mem_ctrls.dram.rank1.pwrStateTime::ACT_PDN            0                       # Time in different power states
system.mem_ctrls.power_state.pwrStateResidencyTicks::UNDEFINED 137370476500                       # Cumulative time (in ticks) in various power states
system.membus.trans_dist::ReadResp              80595                       # Transaction distribution
system.membus.trans_dist::WritebackDirty       147599                       # Transaction distribution
system.membus.trans_dist::CleanEvict            33667                       # Transaction distribution
system.membus.trans_dist::ReadExReq            110602                       # Transaction distribution
system.membus.trans_dist::ReadExResp           110602                       # Transaction distribution
system.membus.trans_dist::ReadSharedReq         80595                       # Transaction distribution
system.membus.pkt_count_system.l2.mem_side_port::system.mem_ctrls.port       563660                       # Packet count per connected requestor and responder (bytes)
system.membus.pkt_count_system.l2.mem_side_port::total       563660                       # Packet count per connected requestor and responder (bytes)
system.membus.pkt_count::total                 563660                       # Packet count per connected requestor and responder (bytes)
system.membus.pkt_size_system.l2.mem_side_port::system.mem_ctrls.port     10841472                       # Cumulative packet size per connected requestor and responder (bytes)
system.membus.pkt_size_system.l2.mem_side_port::total     10841472                       # Cumulative packet size per connected requestor and responder (bytes)
system.membus.pkt_size::total                10841472                       # Cumulative packet size per connected requestor and responder (bytes)
system.membus.snoops                                0                       # Total snoops (count)
system.membus.snoopTraffic                          0                       # Total snoop traffic (bytes)
system.membus.snoop_fanout::samples            191197                       # Request fanout histogram
system.membus.snoop_fanout::mean                    0                       # Request fanout histogram
system.membus.snoop_fanout::stdev                   0                       # Request fanout histogram
system.membus.snoop_fanout::underflows              0      0.00%      0.00% # Request fanout histogram
system.membus.snoop_fanout::0                  191197    100.00%    100.00% # Request fanout histogram
system.membus.snoop_fanout::1                       0      0.00%    100.00% # Request fanout histogram
system.membus.snoop_fanout::overflows               0      0.00%    100.00% # Request fanout histogram
system.membus.snoop_fanout::min_value               0                       # Request fanout histogram
system.membus.snoop_fanout::max_value               0                       # Request fanout histogram
system.membus.snoop_fanout::total              191197                       # Request fanout histogram
system.membus.power_state.pwrStateResidencyTicks::UNDEFINED 137370476500                       # Cumulative time (in ticks) in various power states
system.membus.reqLayer2.occupancy           667702000                       # Layer occupancy (ticks)
system.membus.reqLayer2.utilization               0.5                       # Layer utilization (%)
system.membus.respLayer1.occupancy          646231750                       # Layer occupancy (ticks)
system.membus.respLayer1.utilization              0.5                       # Layer utilization (%)
system.tol2bus.trans_dist::ReadResp             84138                       # Transaction distribution
system.tol2bus.trans_dist::WritebackDirty       301378                       # Transaction distribution
system.tol2bus.trans_dist::WritebackClean          233                       # Transaction distribution
system.tol2bus.trans_dist::CleanEvict          224794                       # Transaction distribution
system.tol2bus.trans_dist::ReadExReq           111397                       # Transaction distribution
system.tol2bus.trans_dist::ReadExResp          111397                       # Transaction distribution
system.tol2bus.trans_dist::ReadCleanReq          3922                       # Transaction distribution
system.tol2bus.trans_dist::ReadSharedReq        80216                       # Transaction distribution
system.tol2bus.pkt_count_system.cpu.icache.mem_side_port::system.l2.cpu_side_port         8077                       # Packet count per connected requestor and responder (bytes)
system.tol2bus.pkt_count_system.cpu.dcache.mem_side_port::system.l2.cpu_side_port       570743                       # Packet count per connected requestor and responder (bytes)
system.tol2bus.pkt_count::total                578820                       # Packet count per connected requestor and responder (bytes)
system.tol2bus.pkt_size_system.cpu.icache.mem_side_port::system.l2.cpu_side_port       132960                       # Cumulative packet size per connected requestor and responder (bytes)
system.tol2bus.pkt_size_system.cpu.dcache.mem_side_port::system.l2.cpu_side_port     11052544                       # Cumulative packet size per connected requestor and responder (bytes)
system.tol2bus.pkt_size::total               11185504                       # Cumulative packet size per connected requestor and responder (bytes)
system.tol2bus.snoops                          338655                       # Total snoops (count)
system.tol2bus.snoopTraffic                   4723168                       # Total snoop traffic (bytes)
system.tol2bus.snoop_fanout::samples           534190                       # Request fanout histogram
system.tol2bus.snoop_fanout::mean            0.355411                       # Request fanout histogram
system.tol2bus.snoop_fanout::stdev           0.478638                       # Request fanout histogram
system.tol2bus.snoop_fanout::underflows             0      0.00%      0.00% # Request fanout histogram
system.tol2bus.snoop_fanout::0                 344333     64.46%     64.46% # Request fanout histogram
system.tol2bus.snoop_fanout::1                 189857     35.54%    100.00% # Request fanout histogram
system.tol2bus.snoop_fanout::2                      0      0.00%    100.00% # Request fanout histogram
system.tol2bus.snoop_fanout::3                      0      0.00%    100.00% # Request fanout histogram
system.tol2bus.snoop_fanout::4                      0      0.00%    100.00% # Request fanout histogram
system.tol2bus.snoop_fanout::overflows              0      0.00%    100.00% # Request fanout histogram
system.tol2bus.snoop_fanout::min_value              0                       # Request fanout histogram
system.tol2bus.snoop_fanout::max_value              1                       # Request fanout histogram
system.tol2bus.snoop_fanout::total             534190                       # Request fanout histogram
system.tol2bus.power_state.pwrStateResidencyTicks::UNDEFINED 137370476500                       # Cumulative time (in ticks) in various power states
system.tol2bus.reqLayer0.occupancy          268648500                       # Layer occupancy (ticks)
system.tol2bus.reqLayer0.utilization              0.2                       # Layer utilization (%)
system.tol2bus.respLayer0.occupancy           3922000                       # Layer occupancy (ticks)
system.tol2bus.respLayer0.utilization             0.0                       # Layer utilization (%)
system.tol2bus.respLayer1.occupancy         191613000                       # Layer occupancy (ticks)
system.tol2bus.respLayer1.utilization             0.1                       # Layer utilization (%)
system.voltage_domain.voltage                       1                       # Voltage in Volts

---------- End Simulation Statistics   ----------
