
---------- Begin Simulation Statistics ----------
final_tick                               137374978500                       # Number of ticks from beginning of simulation (restored from checkpoints and never reset)
host_inst_rate                                 496982                       # Simulator instruction rate (inst/s)
host_mem_usage                                 712740                       # Number of bytes of host memory used
host_op_rate                                   760255                       # Simulator op (including micro ops) rate (op/s)
host_seconds                                   127.64                       # Real time elapsed on the host
host_tick_rate                             1076233293                       # Simulator tick rate (ticks/s)
sim_freq                                 1000000000000                       # Frequency of simulated ticks
sim_insts                                    63436878                       # Number of instructions simulated
sim_ops                                      97042210                       # Number of ops (including micro ops) simulated
sim_seconds                                  0.137375                       # Number of seconds simulated
sim_ticks                                137374978500                       # Number of ticks simulated
system.cpu.Branches                           7714393                       # Number of branches fetched
system.cpu.committedInsts                    63436878                       # Number of instructions committed
system.cpu.committedOps                      97042210                       # Number of ops (including micro ops) committed
system.cpu.idle_fraction                     0.000000                       # Percentage of idle cycles
system.cpu.not_idle_fraction                 1.000000                       # Percentage of non-idle cycles
system.cpu.numCycles                        274749957                       # number of cpu cycles simulated
system.cpu.numWorkItemsCompleted                    0                       # number of work items this cpu completed
system.cpu.numWorkItemsStarted                      0                       # number of work items this cpu started
system.cpu.num_busy_cycles               274749956.998000                       # Number of busy cycles
system.cpu.num_cc_register_reads             29902185                       # number of times the CC registers were read
system.cpu.num_cc_register_writes            27168373                       # number of times the CC registers were written
system.cpu.num_conditional_control_insts      4234783                       # number of instructions that are conditional controls
system.cpu.num_fp_alu_accesses                  85206                       # Number of float alu accesses
system.cpu.num_fp_insts                         85206                       # number of float instructions
system.cpu.num_fp_register_reads               119500                       # number of times the floating registers were read
system.cpu.num_fp_register_writes               63458                       # number of times the floating registers were written
system.cpu.num_func_calls                     1924148                       # number of times a function call or return occured
system.cpu.num_idle_cycles                   0.002000                       # Number of idle cycles
system.cpu.num_int_alu_accesses              95088667                       # Number of integer alu accesses
system.cpu.num_int_insts                     95088667                       # number of integer instructions
system.cpu.num_int_register_reads           214307208                       # number of times the integer registers were read
system.cpu.num_int_register_writes           77409627                       # number of times the integer registers were written
system.cpu.num_load_insts                    26073751                       # Number of load instructions
system.cpu.num_mem_refs                      36099173                       # number of memory refs
system.cpu.num_store_insts                   10025422                       # Number of store instructions
system.cpu.num_vec_alu_accesses                     0                       # Number of vector alu accesses
system.cpu.num_vec_insts                            0                       # number of vector instructions
system.cpu.num_vec_register_reads                   0                       # number of times the vector registers were read
system.cpu.num_vec_register_writes                  0                       # number of times the vector registers were written
system.cpu.op_class::No_OpClass                976243      1.01%      1.01% # Class of executed instruction
system.cpu.op_class::IntAlu                  59879192     61.70%     62.71% # Class of executed instruction
system.cpu.op_class::IntMult                       74      0.00%     62.71% # Class of executed instruction
system.cpu.op_class::IntDiv                     36240      0.04%     62.75% # Class of executed instruction
system.cpu.op_class::FloatAdd                    5590      0.01%     62.75% # Class of executed instruction
system.cpu.op_class::FloatCmp                       0      0.00%     62.75% # Class of executed instruction
system.cpu.op_class::FloatCvt                    1232      0.00%     62.75% # Class of executed instruction
system.cpu.op_class::FloatMult                      0      0.00%     62.75% # Class of executed instruction
system.cpu.op_class::FloatMultAcc                   0      0.00%     62.75% # Class of executed instruction
system.cpu.op_class::FloatDiv                       0      0.00%     62.75% # Class of executed instruction
system.cpu.op_class::FloatMisc                      0      0.00%     62.75% # Class of executed instruction
system.cpu.op_class::FloatSqrt                      0      0.00%     62.75% # Class of executed instruction
system.cpu.op_class::SimdAdd                     6716      0.01%     62.76% # Class of executed instruction
system.cpu.op_class::SimdAddAcc                     0      0.00%     62.76% # Class of executed instruction
system.cpu.op_class::SimdAlu                    12162      0.01%     62.77% # Class of executed instruction
system.cpu.op_class::SimdCmp                        6      0.00%     62.77% # Class of executed instruction
system.cpu.op_class::SimdCvt                    13804      0.01%     62.79% # Class of executed instruction
system.cpu.op_class::SimdMisc                   12230      0.01%     62.80% # Class of executed instruction
system.cpu.op_class::SimdMult                       0      0.00%     62.80% # Class of executed instruction
system.cpu.op_class::SimdMultAcc                    0      0.00%     62.80% # Class of executed instruction
system.cpu.op_class::SimdShift                    436      0.00%     62.80% # Class of executed instruction
system.cpu.op_class::SimdShiftAcc                   0      0.00%     62.80% # Class of executed instruction
system.cpu.op_class::SimdDiv                        0      0.00%     62.80% # Class of executed instruction
system.cpu.op_class::SimdSqrt                       0      0.00%     62.80% # Class of executed instruction
system.cpu.op_class::SimdFloatAdd                  10      0.00%     62.80% # Class of executed instruction
system.cpu.op_class::SimdFloatAlu                   0      0.00%     62.80% # Class of executed instruction
system.cpu.op_class::SimdFloatCmp                   0      0.00%     62.80% # Class of executed instruction
system.cpu.op_class::SimdFloatCvt                  30      0.00%     62.80% # Class of executed instruction
system.cpu.op_class::SimdFloatDiv                   0      0.00%     62.80% # Class of executed instruction
system.cpu.op_class::SimdFloatMisc                  0      0.00%     62.80% # Class of executed instruction
system.cpu.op_class::SimdFloatMult                 12      0.00%     62.80% # Class of executed instruction
system.cpu.op_class::SimdFloatMultAcc               0      0.00%     62.80% # Class of executed instruction
system.cpu.op_class::SimdFloatSqrt                  0      0.00%     62.80% # Class of executed instruction
system.cpu.op_class::SimdReduceAdd                  0      0.00%     62.80% # Class of executed instruction
system.cpu.op_class::SimdReduceAlu                  0      0.00%     62.80% # Class of executed instruction
system.cpu.op_class::SimdReduceCmp                  0      0.00%     62.80% # Class of executed instruction
system.cpu.op_class::SimdFloatReduceAdd             0      0.00%     62.80% # Class of executed instruction
system.cpu.op_class::SimdFloatReduceCmp             0      0.00%     62.80% # Class of executed instruction
system.cpu.op_class::SimdAes                        0      0.00%     62.80% # Class of executed instruction
system.cpu.op_class::SimdAesMix                     0      0.00%     62.80% # Class of executed instruction
system.cpu.op_class::SimdSha1Hash                   0      0.00%     62.80% # Class of executed instruction
system.cpu.op_class::SimdSha1Hash2                  0      0.00%     62.80% # Class of executed instruction
system.cpu.op_class::SimdSha256Hash                 0      0.00%     62.80% # Class of executed instruction
system.cpu.op_class::SimdSha256Hash2                0      0.00%     62.80% # Class of executed instruction
system.cpu.op_class::SimdShaSigma2                  0      0.00%     62.80% # Class of executed instruction
system.cpu.op_class::SimdShaSigma3                  0      0.00%     62.80% # Class of executed instruction
system.cpu.op_class::SimdPredAlu                    0      0.00%     62.80% # Class of executed instruction
system.cpu.op_class::MemRead                 26056914     26.85%     89.65% # Class of executed instruction
system.cpu.op_class::MemWrite                10011984     10.32%     99.97% # Class of executed instruction
system.cpu.op_class::FloatMemRead               16837      0.02%     99.99% # Class of executed instruction
system.cpu.op_class::FloatMemWrite              13438      0.01%    100.00% # Class of executed instruction
system.cpu.op_class::IprAccess                      0      0.00%    100.00% # Class of executed instruction
system.cpu.op_class::InstPrefetch                   0      0.00%    100.00% # Class of executed instruction
system.cpu.op_class::total                   97043150                       # Class of executed instruction
system.cpu.workload.numSyscalls                   100                       # Number of system calls
system.membus.snoop_filter.hit_multi_requests            0                       # Number of requests hitting in the snoop filter with multiple (>1) holders of the requested data.
system.membus.snoop_filter.hit_multi_snoops            0                       # Number of snoops hitting in the snoop filter with multiple (>1) holders of the requested data.
system.membus.snoop_filter.hit_single_requests       181590                       # Number of requests hitting in the snoop filter with a single holder of the requested data.
system.membus.snoop_filter.hit_single_snoops            0                       # Number of snoops hitting in the snoop filter with a single holder of the requested data.
system.membus.snoop_filter.tot_requests        372795                       # Total number of requests made to the snoop filter.
system.membus.snoop_filter.tot_snoops               0                       # Total number of snoops made to the snoop filter.
system.tol2bus.snoop_filter.hit_multi_requests            0                       # Number of requests hitting in the snoop filter with multiple (>1) holders of the requested data.
system.tol2bus.snoop_filter.hit_multi_snoops            0                       # Number of snoops hitting in the snoop filter with multiple (>1) holders of the requested data.
system.tol2bus.snoop_filter.hit_single_requests       188038                       # Number of requests hitting in the snoop filter with a single holder of the requested data.
system.tol2bus.snoop_filter.hit_single_snoops       189827                       # Number of snoops hitting in the snoop filter with a single holder of the requested data.
system.tol2bus.snoop_filter.tot_requests       383585                       # Total number of requests made to the snoop filter.
system.tol2bus.snoop_filter.tot_snoops         189827                       # Total number of snoops made to the snoop filter.
system.clk_domain.clock                          1000                       # Clock period in ticks
system.cpu.dcache.demand_hits::.cpu.data     35939861                       # number of demand (read+write) hits
system.cpu.dcache.demand_hits::total         35939861                       # number of demand (read+write) hits
system.cpu.dcache.overall_hits::.cpu.data     35939861                       # number of overall hits
system.cpu.dcache.overall_hits::total        35939861                       # number of overall hits
system.cpu.dcache.demand_misses::.cpu.data       191613                       # number of demand (read+write) misses
system.cpu.dcache.demand_misses::total         191613                       # number of demand (read+write) misses
system.cpu.dcache.overall_misses::.cpu.data       191613                       # number of overall misses
system.cpu.dcache.overall_misses::total        191613                       # number of overall misses
system.cpu.dcache.demand_miss_latency::.cpu.data  15573527000                       # number of demand (read+write) miss cycles
system.cpu.dcache.demand_miss_latency::total  15573527000                       # number of demand (read+write) miss cycles
system.cpu.dcache.overall_miss_latency::.cpu.data  15573527000                       # number of overall miss cycles
system.cpu.dcache.overall_miss_latency::total  15573527000                       # number of overall miss cycles
system.cpu.dcache.demand_accesses::.cpu.data     36131474                       # number of demand (read+write) accesses
system.cpu.dcache.demand_accesses::total     36131474                       # number of demand (read+write) accesses
system.cpu.dcache.overall_accesses::.cpu.data     36131474                       # number of overall (read+write) accesses
system.cpu.dcache.overall_accesses::total     36131474                       # number of overall (read+write) accesses
system.cpu.dcache.demand_miss_rate::.cpu.data     0.005303                       # miss rate for demand accesses
system.cpu.dcache.demand_miss_rate::total     0.005303                       # miss rate for demand accesses
system.cpu.dcache.overall_miss_rate::.cpu.data     0.005303                       # miss rate for overall accesses
system.cpu.dcache.overall_miss_rate::total     0.005303                       # miss rate for overall accesses
system.cpu.dcache.demand_avg_miss_latency::.cpu.data 81275.941611                       # average overall miss latency
system.cpu.dcache.demand_avg_miss_latency::total 81275.941611                       # average overall miss latency
system.cpu.dcache.overall_avg_miss_latency::.cpu.data 81275.941611                       # average overall miss latency
system.cpu.dcache.overall_avg_miss_latency::total 81275.941611                       # average overall miss latency
system.cpu.dcache.blocked_cycles::no_mshrs            0                       # number of cycles access was blocked
system.cpu.dcache.blocked_cycles::no_targets            0                       # number of cycles access was blocked
system.cpu.dcache.blocked::no_mshrs                 0                       # number of cycles access was blocked
system.cpu.dcache.blocked::no_targets               0                       # number of cycles access was blocked
system.cpu.dcache.avg_blocked_cycles::no_mshrs          nan                       # average number of cycles each access was blocked
system.cpu.dcache.avg_blocked_cycles::no_targets          nan                       # average number of cycles each access was blocked
system.cpu.dcache.writebacks::.writebacks       153779                       # number of writebacks
system.cpu.dcache.writebacks::total            153779                       # number of writebacks
system.cpu.dcache.demand_mshr_misses::.cpu.data       191613                       # number of demand (read+write) MSHR misses
system.cpu.dcache.demand_mshr_misses::total       191613                       # number of demand (read+write) MSHR misses
system.cpu.dcache.overall_mshr_misses::.cpu.data       191613                       # number of overall MSHR misses
system.cpu.dcache.overall_mshr_misses::total       191613                       # number of overall MSHR misses
system.cpu.dcache.demand_mshr_miss_latency::.cpu.data  15381914000                       # number of demand (read+write) MSHR miss cycles
system.cpu.dcache.demand_mshr_miss_latency::total  15381914000                       # number of demand (read+write) MSHR miss cycles
system.cpu.dcache.overall_mshr_miss_latency::.cpu.data  15381914000                       # number of overall MSHR miss cycles
system.cpu.dcache.overall_mshr_miss_latency::total  15381914000                       # number of overall MSHR miss cycles
system.cpu.dcache.demand_mshr_miss_rate::.cpu.data     0.005303                       # mshr miss rate for demand accesses
system.cpu.dcache.demand_mshr_miss_rate::total     0.005303                       # mshr miss rate for demand accesses
system.cpu.dcache.overall_mshr_miss_rate::.cpu.data     0.005303                       # mshr miss rate for overall accesses
system.cpu.dcache.overall_mshr_miss_rate::total     0.005303                       # mshr miss rate for overall accesses
system.cpu.dcache.demand_avg_mshr_miss_latency::.cpu.data 80275.941611                       # average overall mshr miss latency
system.cpu.dcache.demand_avg_mshr_miss_latency::total 80275.941611                       # average overall mshr miss latency
system.cpu.dcache.overall_avg_mshr_miss_latency::.cpu.data 80275.941611                       # average overall mshr miss latency
system.cpu.dcache.overall_avg_mshr_miss_latency::total 80275.941611                       # average overall mshr miss latency
system.cpu.dcache.replacements                 187517                       # number of replacements
system.cpu.dcache.ReadReq_hits::.cpu.data     25993655                       # number of ReadReq hits
system.cpu.dcache.ReadReq_hits::total        25993655                       # number of ReadReq hits
system.cpu.dcache.ReadReq_misses::.cpu.data        80216                       # number of ReadReq misses
system.cpu.dcache.ReadReq_misses::total         80216                       # number of ReadReq misses
system.cpu.dcache.ReadReq_miss_latency::.cpu.data   6894948500                       # number of ReadReq miss cycles
system.cpu.dcache.ReadReq_miss_latency::total   6894948500                       # number of ReadReq miss cycles
system.cpu.dcache.ReadReq_accesses::.cpu.data     26073871                       # number of ReadReq accesses(hits+misses)
system.cpu.dcache.ReadReq_accesses::total     26073871                       # number of ReadReq accesses(hits+misses)
system.cpu.dcache.ReadReq_miss_rate::.cpu.data     0.003076                       # miss rate for ReadReq accesses
system.cpu.dcache.ReadReq_miss_rate::total     0.003076                       # miss rate for ReadReq accesses
system.cpu.dcache.ReadReq_avg_miss_latency::.cpu.data 85954.778348                       # average ReadReq miss latency
system.cpu.dcache.ReadReq_avg_miss_latency::total 85954.778348                       # average ReadReq miss latency
system.cpu.dcache.ReadReq_mshr_misses::.cpu.data        80216                       # number of ReadReq MSHR misses
system.cpu.dcache.ReadReq_mshr_misses::total        80216                       # number of ReadReq MSHR misses
system.cpu.dcache.ReadReq_mshr_miss_latency::.cpu.data   6814732500                       # number of ReadReq MSHR miss cycles
system.cpu.dcache.ReadReq_mshr_miss_latency::total   6814732500                       # number of ReadReq MSHR miss cycles
system.cpu.dcache.ReadReq_mshr_miss_rate::.cpu.data     0.003076                       # mshr miss rate for ReadReq accesses
system.cpu.dcache.ReadReq_mshr_miss_rate::total     0.003076                       # mshr miss rate for ReadReq accesses
system.cpu.dcache.ReadReq_avg_mshr_miss_latency::.cpu.data 84954.778348                       # average ReadReq mshr miss latency
system.cpu.dcache.ReadReq_avg_mshr_miss_latency::total 84954.778348                       # average ReadReq mshr miss latency
system.cpu.dcache.WriteReq_hits::.cpu.data      9946206                       # number of WriteReq hits
system.cpu.dcache.WriteReq_hits::total        9946206                       # number of WriteReq hits
system.cpu.dcache.WriteReq_misses::.cpu.data       111397                       # number of WriteReq misses
system.cpu.dcache.WriteReq_misses::total       111397                       # number of WriteReq misses
system.cpu.dcache.WriteReq_miss_latency::.cpu.data   8678578500                       # number of WriteReq miss cycles
system.cpu.dcache.WriteReq_miss_latency::total   8678578500                       # number of WriteReq miss cycles
system.cpu.dcache.WriteReq_accesses::.cpu.data     10057603                       # number of WriteReq accesses(hits+misses)
system.cpu.dcache.WriteReq_accesses::total     10057603                       # number of WriteReq accesses(hits+misses)
system.cpu.dcache.WriteReq_miss_rate::.cpu.data     0.011076                       # miss rate for WriteReq accesses
system.cpu.dcache.WriteReq_miss_rate::total     0.011076                       # miss rate for WriteReq accesses
system.cpu.dcache.WriteReq_avg_miss_latency::.cpu.data 77906.752426                       # average WriteReq miss latency
system.cpu.dcache.WriteReq_avg_miss_latency::total 77906.752426                       # average WriteReq miss latency
system.cpu.dcache.WriteReq_mshr_misses::.cpu.data       111397                       # number of WriteReq MSHR misses
system.cpu.dcache.WriteReq_mshr_misses::total       111397                       # number of WriteReq MSHR misses
system.cpu.dcache.WriteReq_mshr_miss_latency::.cpu.data   8567181500                       # number of WriteReq MSHR miss cycles
system.cpu.dcache.WriteReq_mshr_miss_latency::total   8567181500                       # number of WriteReq MSHR miss cycles
system.cpu.dcache.WriteReq_mshr_miss_rate::.cpu.data     0.011076                       # mshr miss rate for WriteReq accesses
system.cpu.dcache.WriteReq_mshr_miss_rate::total     0.011076                       # mshr miss rate for WriteReq accesses
system.cpu.dcache.WriteReq_avg_mshr_miss_latency::.cpu.data 76906.752426                       # average WriteReq mshr miss latency
system.cpu.dcache.WriteReq_avg_mshr_miss_latency::total 76906.752426                       # average WriteReq mshr miss latency
system.cpu.dcache.power_state.pwrStateResidencyTicks::UNDEFINED 137374978500                       # Cumulative time (in ticks) in various power states
system.cpu.dcache.tags.tagsinuse          4081.785913                       # Cycle average of tags in use
system.cpu.dcache.tags.total_refs            36131474                       # Total number of references to valid blocks.
system.cpu.dcache.tags.sampled_refs            191613                       # Sample count of references to valid blocks.
system.cpu.dcache.tags.avg_refs            188.564836                       # Average number of references to valid blocks.
system.cpu.dcache.tags.warmup_cycle            174500                       # Cycle when the warmup percentage was hit.
system.cpu.dcache.tags.occ_blocks::.cpu.data  4081.785913                       # Average occupied blocks per requestor
system.cpu.dcache.tags.occ_percent::.cpu.data     0.996530                       # Average percentage of cache occupancy
system.cpu.dcache.tags.occ_percent::total     0.996530                       # Average percentage of cache occupancy
system.cpu.dcache.tags.occ_task_id_blocks::1024         4096                       # Occupied blocks per task id
system.cpu.dcache.tags.age_task_id_blocks_1024::0           35                       # Occupied blocks per task id
system.cpu.dcache.tags.age_task_id_blocks_1024::1          414                       # Occupied blocks per task id
system.cpu.dcache.tags.age_task_id_blocks_1024::2         3644                       # Occupied blocks per task id
system.cpu.dcache.tags.age_task_id_blocks_1024::3            3                       # Occupied blocks per task id
system.cpu.dcache.tags.occ_task_id_percent::1024            1                       # Percentage of cache occupancy per task id
system.cpu.dcache.tags.tag_accesses          72454561                       # Number of tag accesses
system.cpu.dcache.tags.data_accesses         72454561                       # Number of data accesses
system.cpu.dcache.tags.power_state.pwrStateResidencyTicks::UNDEFINED 137374978500                       # Cumulative time (in ticks) in various power states
system.cpu.dtb.rdAccesses                    26074093                       # TLB accesses on read requests
system.cpu.dtb.wrAccesses                    10058351                       # TLB accesses on write requests
system.cpu.dtb.rdMisses                          1987                       # TLB misses on read requests
system.cpu.dtb.wrMisses                          1560                       # TLB misses on write requests
system.cpu.dtb.walker.power_state.pwrStateResidencyTicks::UNDEFINED 137374978500                       # Cumulative time (in ticks) in various power states
system.cpu.dtb_walker_cache.blocked_cycles::no_mshrs            0                       # number of cycles access was blocked
system.cpu.dtb_walker_cache.blocked_cycles::no_targets            0                       # number of cycles access was blocked
system.cpu.dtb_walker_cache.blocked::no_mshrs            0                       # number of cycles access was blocked
system.cpu.dtb_walker_cache.blocked::no_targets            0                       # number of cycles access was blocked
system.cpu.dtb_walker_cache.avg_blocked_cycles::no_mshrs          nan                       # average number of cycles each access was blocked
system.cpu.dtb_walker_cache.avg_blocked_cycles::no_targets          nan                       # average number of cycles each access was blocked
system.cpu.dtb_walker_cache.replacements            0                       # number of replacements
system.cpu.dtb_walker_cache.power_state.pwrStateResidencyTicks::UNDEFINED 137374978500                       # Cumulative time (in ticks) in various power states
system.cpu.dtb_walker_cache.tags.tagsinuse            0                       # Cycle average of tags in use
system.cpu.dtb_walker_cache.tags.total_refs            0                       # Total number of references to valid blocks.
system.cpu.dtb_walker_cache.tags.sampled_refs            0                       # Sample count of references to valid blocks.
system.cpu.dtb_walker_cache.tags.avg_refs          nan                       # Average number of references to valid blocks.
system.cpu.dtb_walker_cache.tags.warmup_cycle            0                       # Cycle when the warmup percentage was hit.
system.cpu.dtb_walker_cache.tags.tag_accesses            0                       # Number of tag accesses
system.cpu.dtb_walker_cache.tags.data_accesses            0                       # Number of data accesses
system.cpu.dtb_walker_cache.tags.power_state.pwrStateResidencyTicks::UNDEFINED 137374978500                       # Cumulative time (in ticks) in various power states
system.cpu.icache.demand_hits::.cpu.inst     85584560                       # number of demand (read+write) hits
system.cpu.icache.demand_hits::total         85584560                       # number of demand (read+write) hits
system.cpu.icache.overall_hits::.cpu.inst     85584560                       # number of overall hits
system.cpu.icache.overall_hits::total        85584560                       # number of overall hits
system.cpu.icache.demand_misses::.cpu.inst         3934                       # number of demand (read+write) misses
system.cpu.icache.demand_misses::total           3934                       # number of demand (read+write) misses
system.cpu.icache.overall_misses::.cpu.inst         3934                       # number of overall misses
system.cpu.icache.overall_misses::total          3934                       # number of overall misses
system.cpu.icache.demand_miss_latency::.cpu.inst    311820500                       # number of demand (read+write) miss cycles
system.cpu.icache.demand_miss_latency::total    311820500                       # number of demand (read+write) miss cycles
system.cpu.icache.overall_miss_latency::.cpu.inst    311820500                       # number of overall miss cycles
system.cpu.icache.overall_miss_latency::total    311820500                       # number of overall miss cycles
system.cpu.icache.demand_accesses::.cpu.inst     85588494                       # number of demand (read+write) accesses
system.cpu.icache.demand_accesses::total     85588494                       # number of demand (read+write) accesses
system.cpu.icache.overall_accesses::.cpu.inst     85588494                       # number of overall (read+write) accesses
system.cpu.icache.overall_accesses::total     85588494                       # number of overall (read+write) accesses
system.cpu.icache.demand_miss_rate::.cpu.inst     0.000046                       # miss rate for demand accesses
system.cpu.icache.demand_miss_rate::total     0.000046                       # miss rate for demand accesses
system.cpu.icache.overall_miss_rate::.cpu.inst     0.000046                       # miss rate for overall accesses
system.cpu.icache.overall_miss_rate::total     0.000046                       # miss rate for overall accesses
system.cpu.icache.demand_avg_miss_latency::.cpu.inst 79262.963904                       # average overall miss latency
system.cpu.icache.demand_avg_miss_latency::total 79262.963904                       # average overall miss latency
system.cpu.icache.overall_avg_miss_latency::.cpu.inst 79262.963904                       # average overall miss latency
system.cpu.icache.overall_avg_miss_latency::total 79262.963904                       # average overall miss latency
system.cpu.icache.blocked_cycles::no_mshrs            0                       # number of cycles access was blocked
system.cpu.icache.blocked_cycles::no_targets            0                       # number of cycles access was blocked
system.cpu.icache.blocked::no_mshrs                 0                       # number of cycles access was blocked
system.cpu.icache.blocked::no_targets               0                       # number of cycles access was blocked
system.cpu.icache.avg_blocked_cycles::no_mshrs          nan                       # average number of cycles each access was blocked
system.cpu.icache.avg_blocked_cycles::no_targets          nan                       # average number of cycles each access was blocked
system.cpu.icache.writebacks::.writebacks          521                       # number of writebacks
system.cpu.icache.writebacks::total               521                       # number of writebacks
system.cpu.icache.demand_mshr_misses::.cpu.inst         3934                       # number of demand (read+write) MSHR misses
system.cpu.icache.demand_mshr_misses::total         3934                       # number of demand (read+write) MSHR misses
system.cpu.icache.overall_mshr_misses::.cpu.inst         3934                       # number of overall MSHR misses
system.cpu.icache.overall_mshr_misses::total         3934                       # number of overall MSHR misses
system.cpu.icache.demand_mshr_miss_latency::.cpu.inst    307886500                       # number of demand (read+write) MSHR miss cycles
system.cpu.icache.demand_mshr_miss_latency::total    307886500                       # number of demand (read+write) MSHR miss cycles
system.cpu.icache.overall_mshr_miss_latency::.cpu.inst    307886500                       # number of overall MSHR miss cycles
system.cpu.icache.overall_mshr_miss_latency::total    307886500                       # number of overall MSHR miss cycles
system.cpu.icache.demand_mshr_miss_rate::.cpu.inst     0.000046                       # mshr miss rate for demand accesses
system.cpu.icache.demand_mshr_miss_rate::total     0.000046                       # mshr miss rate for demand accesses
system.cpu.icache.overall_mshr_miss_rate::.cpu.inst     0.000046                       # mshr miss rate for overall accesses
system.cpu.icache.overall_mshr_miss_rate::total     0.000046                       # mshr miss rate for overall accesses
system.cpu.icache.demand_avg_mshr_miss_latency::.cpu.inst 78262.963904                       # average overall mshr miss latency
system.cpu.icache.demand_avg_mshr_miss_latency::total 78262.963904                       # average overall mshr miss latency
system.cpu.icache.overall_avg_mshr_miss_latency::.cpu.inst 78262.963904                       # average overall mshr miss latency
system.cpu.icache.overall_avg_mshr_miss_latency::total 78262.963904                       # average overall mshr miss latency
system.cpu.icache.replacements                    521                       # number of replacements
system.cpu.icache.ReadReq_hits::.cpu.inst     85584560                       # number of ReadReq hits
system.cpu.icache.ReadReq_hits::total        85584560                       # number of ReadReq hits
system.cpu.icache.ReadReq_misses::.cpu.inst         3934                       # number of ReadReq misses
system.cpu.icache.ReadReq_misses::total          3934                       # number of ReadReq misses
system.cpu.icache.ReadReq_miss_latency::.cpu.inst    311820500                       # number of ReadReq miss cycles
system.cpu.icache.ReadReq_miss_latency::total    311820500                       # number of ReadReq miss cycles
system.cpu.icache.ReadReq_accesses::.cpu.inst     85588494                       # number of ReadReq accesses(hits+misses)
system.cpu.icache.ReadReq_accesses::total     85588494                       # number of ReadReq accesses(hits+misses)
system.cpu.icache.ReadReq_miss_rate::.cpu.inst     0.000046                       # miss rate for ReadReq accesses
system.cpu.icache.ReadReq_miss_rate::total     0.000046                       # miss rate for ReadReq accesses
system.cpu.icache.ReadReq_avg_miss_latency::.cpu.inst 79262.963904                       # average ReadReq miss latency
system.cpu.icache.ReadReq_avg_miss_latency::total 79262.963904                       # average ReadReq miss latency
system.cpu.icache.ReadReq_mshr_misses::.cpu.inst         3934                       # number of ReadReq MSHR misses
system.cpu.icache.ReadReq_mshr_misses::total         3934                       # number of ReadReq MSHR misses
system.cpu.icache.ReadReq_mshr_miss_latency::.cpu.inst    307886500                       # number of ReadReq MSHR miss cycles
system.cpu.icache.ReadReq_mshr_miss_latency::total    307886500                       # number of ReadReq MSHR miss cycles
system.cpu.icache.ReadReq_mshr_miss_rate::.cpu.inst     0.000046                       # mshr miss rate for ReadReq accesses
system.cpu.icache.ReadReq_mshr_miss_rate::total     0.000046                       # mshr miss rate for ReadReq accesses
system.cpu.icache.ReadReq_avg_mshr_miss_latency::.cpu.inst 78262.963904                       # average ReadReq mshr miss latency
system.cpu.icache.ReadReq_avg_mshr_miss_latency::total 78262.963904                       # average ReadReq mshr miss latency
system.cpu.icache.power_state.pwrStateResidencyTicks::UNDEFINED 137374978500                       # Cumulative time (in ticks) in various power states
system.cpu.icache.tags.tagsinuse          2915.933017                       # Cycle average of tags in use
system.cpu.icache.tags.total_refs            85588494                       # Total number of references to valid blocks.
system.cpu.icache.tags.sampled_refs              3934                       # Sample count of references to valid blocks.
system.cpu.icache.tags.avg_refs          21756.099136                       # Average number of references to valid blocks.
system.cpu.icache.tags.warmup_cycle             87500                       # Cycle when the warmup percentage was hit.
system.cpu.icache.tags.occ_blocks::.cpu.inst  2915.933017                       # Average occupied blocks per requestor
system.cpu.icache.tags.occ_percent::.cpu.inst     0.711898                       # Average percentage of cache occupancy
system.cpu.icache.tags.occ_percent::total     0.711898                       # Average percentage of cache occupancy
system.cpu.icache.tags.occ_task_id_blocks::1024         3413                       # Occupied blocks per task id
system.cpu.icache.tags.age_task_id_blocks_1024::0           57                       # Occupied blocks per task id
system.cpu.icache.tags.age_task_id_blocks_1024::1          348                       # Occupied blocks per task id
system.cpu.icache.tags.age_task_id_blocks_1024::2           28                       # Occupied blocks per task id
system.cpu.icache.tags.age_task_id_blocks_1024::3          218                       # Occupied blocks per task id
system.cpu.icache.tags.age_task_id_blocks_1024::4         2762                       # Occupied blocks per task id
system.cpu.icache.tags.occ_task_id_percent::1024     0.833252                       # Percentage of cache occupancy per task id
system.cpu.icache.tags.tag_accesses         342357910                       # Number of tag accesses
system.cpu.icache.tags.data_accesses        342357910                       # Number of data accesses
system.cpu.icache.tags.power_state.pwrStateResidencyTicks::UNDEFINED 137374978500                       # Cumulative time (in ticks) in various power states
system.cpu.interrupts.clk_domain.clock           8000                       # Clock period in ticks
system.cpu.itb.rdAccesses                           0                       # TLB accesses on read requests
system.cpu.itb.wrAccesses                    85588623                       # TLB accesses on write requests
system.cpu.itb.rdMisses                             0                       # TLB misses on read requests
system.cpu.itb.wrMisses                           542                       # TLB misses on write requests
system.cpu.itb.walker.power_state.pwrStateResidencyTicks::UNDEFINED 137374978500                       # Cumulative time (in ticks) in various power states
system.cpu.itb_walker_cache.blocked_cycles::no_mshrs            0                       # number of cycles access was blocked
system.cpu.itb_walker_cache.blocked_cycles::no_targets            0                       # number of cycles access was blocked
system.cpu.itb_walker_cache.blocked::no_mshrs            0                       # number of cycles access was blocked
system.cpu.itb_walker_cache.blocked::no_targets            0                       # number of cycles access was blocked
system.cpu.itb_walker_cache.avg_blocked_cycles::no_mshrs          nan                       # average number of cycles each access was blocked
system.cpu.itb_walker_cache.avg_blocked_cycles::no_targets          nan                       # average number of cycles each access was blocked
system.cpu.itb_walker_cache.replacements            0                       # number of replacements
system.cpu.itb_walker_cache.power_state.pwrStateResidencyTicks::UNDEFINED 137374978500                       # Cumulative time (in ticks) in various power states
system.cpu.itb_walker_cache.tags.tagsinuse            0                       # Cycle average of tags in use
system.cpu.itb_walker_cache.tags.total_refs            0                       # Total number of references to valid blocks.
system.cpu.itb_walker_cache.tags.sampled_refs            0                       # Sample count of references to valid blocks.
system.cpu.itb_walker_cache.tags.avg_refs          nan                       # Average number of references to valid blocks.
system.cpu.itb_walker_cache.tags.warmup_cycle            0                       # Cycle when the warmup percentage was hit.
system.cpu.itb_walker_cache.tags.tag_accesses            0                       # Number of tag accesses
system.cpu.itb_walker_cache.tags.data_accesses            0                       # Number of data accesses
system.cpu.itb_walker_cache.tags.power_state.pwrStateResidencyTicks::UNDEFINED 137374978500                       # Cumulative time (in ticks) in various power states
system.cpu.power_state.pwrStateResidencyTicks::ON 137374978500                       # Cumulative time (in ticks) in various power states
system.cpu.thread_0.numInsts                        0                       # Number of Instructions committed
system.cpu.thread_0.numOps                          0                       # Number of Ops committed
system.cpu.thread_0.numMemRefs                      0                       # Number of Memory References
system.cpu_clk_domain.clock                       500                       # Clock period in ticks
system.cpu_voltage_domain.voltage                   1                       # Voltage in Volts
system.l2.demand_hits::.cpu.inst                    4                       # number of demand (read+write) hits
system.l2.demand_hits::.cpu.data                 4338                       # number of demand (read+write) hits
system.l2.demand_hits::total                     4342                       # number of demand (read+write) hits
system.l2.overall_hits::.cpu.inst                   4                       # number of overall hits
system.l2.overall_hits::.cpu.data                4338                       # number of overall hits
system.l2.overall_hits::total                    4342                       # number of overall hits
system.l2.demand_misses::.cpu.inst               3930                       # number of demand (read+write) misses
system.l2.demand_misses::.cpu.data             187275                       # number of demand (read+write) misses
system.l2.demand_misses::total                 191205                       # number of demand (read+write) misses
system.l2.overall_misses::.cpu.inst              3930                       # number of overall misses
system.l2.overall_misses::.cpu.data            187275                       # number of overall misses
system.l2.overall_misses::total                191205                       # number of overall misses
system.l2.demand_miss_latency::.cpu.inst    301943500                       # number of demand (read+write) miss cycles
system.l2.demand_miss_latency::.cpu.data  15048895500                       # number of demand (read+write) miss cycles
system.l2.demand_miss_latency::total      15350839000                       # number of demand (read+write) miss cycles
system.l2.overall_miss_latency::.cpu.inst    301943500                       # number of overall miss cycles
system.l2.overall_miss_latency::.cpu.data  15048895500                       # number of overall miss cycles
system.l2.overall_miss_latency::total     15350839000                       # number of overall miss cycles
system.l2.demand_accesses::.cpu.inst             3934                       # number of demand (read+write) accesses
system.l2.demand_accesses::.cpu.data           191613                       # number of demand (read+write) accesses
system.l2.demand_accesses::total               195547                       # number of demand (read+write) accesses
system.l2.overall_accesses::.cpu.inst            3934                       # number of overall (read+write) accesses
system.l2.overall_accesses::.cpu.data          191613                       # number of overall (read+write) accesses
system.l2.overall_accesses::total              195547                       # number of overall (read+write) accesses
system.l2.demand_miss_rate::.cpu.inst        0.998983                       # miss rate for demand accesses
system.l2.demand_miss_rate::.cpu.data        0.977361                       # miss rate for demand accesses
system.l2.demand_miss_rate::total            0.977796                       # miss rate for demand accesses
system.l2.overall_miss_rate::.cpu.inst       0.998983                       # miss rate for overall accesses
system.l2.overall_miss_rate::.cpu.data       0.977361                       # miss rate for overall accesses
system.l2.overall_miss_rate::total           0.977796                       # miss rate for overall accesses
system.l2.demand_avg_miss_latency::.cpu.inst 76830.407125                       # average overall miss latency
system.l2.demand_avg_miss_latency::.cpu.data 80357.204646                       # average overall miss latency
system.l2.demand_avg_miss_latency::total 80284.715358                       # average overall miss latency
system.l2.overall_avg_miss_latency::.cpu.inst 76830.407125                       # average overall miss latency
system.l2.overall_avg_miss_latency::.cpu.data 80357.204646                       # average overall miss latency
system.l2.overall_avg_miss_latency::total 80284.715358                       # average overall miss latency
system.l2.blocked_cycles::no_mshrs                  0                       # number of cycles access was blocked
system.l2.blocked_cycles::no_targets                0                       # number of cycles access was blocked
system.l2.blocked::no_mshrs                         0                       # number of cycles access was blocked
system.l2.blocked::no_targets                       0                       # number of cycles access was blocked
system.l2.avg_blocked_cycles::no_mshrs            nan                       # average number of cycles each access was blocked
system.l2.avg_blocked_cycles::no_targets          nan                       # average number of cycles each access was blocked
system.l2.writebacks::.writebacks              147652                       # number of writebacks
system.l2.writebacks::total                    147652                       # number of writebacks
system.l2.demand_mshr_misses::.cpu.inst          3930                       # number of demand (read+write) MSHR misses
system.l2.demand_mshr_misses::.cpu.data        187275                       # number of demand (read+write) MSHR misses
system.l2.demand_mshr_misses::total            191205                       # number of demand (read+write) MSHR misses
system.l2.overall_mshr_misses::.cpu.inst         3930                       # number of overall MSHR misses
system.l2.overall_mshr_misses::.cpu.data       187275                       # number of overall MSHR misses
system.l2.overall_mshr_misses::total           191205                       # number of overall MSHR misses
system.l2.demand_mshr_miss_latency::.cpu.inst    262643500                       # number of demand (read+write) MSHR miss cycles
system.l2.demand_mshr_miss_latency::.cpu.data  13176145500                       # number of demand (read+write) MSHR miss cycles
system.l2.demand_mshr_miss_latency::total  13438789000                       # number of demand (read+write) MSHR miss cycles
system.l2.overall_mshr_miss_latency::.cpu.inst    262643500                       # number of overall MSHR miss cycles
system.l2.overall_mshr_miss_latency::.cpu.data  13176145500                       # number of overall MSHR miss cycles
system.l2.overall_mshr_miss_latency::total  13438789000                       # number of overall MSHR miss cycles
system.l2.demand_mshr_miss_rate::.cpu.inst     0.998983                       # mshr miss rate for demand accesses
system.l2.demand_mshr_miss_rate::.cpu.data     0.977361                       # mshr miss rate for demand accesses
system.l2.demand_mshr_miss_rate::total       0.977796                       # mshr miss rate for demand accesses
system.l2.overall_mshr_miss_rate::.cpu.inst     0.998983                       # mshr miss rate for overall accesses
system.l2.overall_mshr_miss_rate::.cpu.data     0.977361                       # mshr miss rate for overall accesses
system.l2.overall_mshr_miss_rate::total      0.977796                       # mshr miss rate for overall accesses
system.l2.demand_avg_mshr_miss_latency::.cpu.inst 66830.407125                       # average overall mshr miss latency
system.l2.demand_avg_mshr_miss_latency::.cpu.data 70357.204646                       # average overall mshr miss latency
system.l2.demand_avg_mshr_miss_latency::total 70284.715358                       # average overall mshr miss latency
system.l2.overall_avg_mshr_miss_latency::.cpu.inst 66830.407125                       # average overall mshr miss latency
system.l2.overall_avg_mshr_miss_latency::.cpu.data 70357.204646                       # average overall mshr miss latency
system.l2.overall_avg_mshr_miss_latency::total 70284.715358                       # average overall mshr miss latency
system.l2.replacements                         338944                       # number of replacements
system.l2.WritebackDirty_hits::.writebacks       153779                       # number of WritebackDirty hits
system.l2.WritebackDirty_hits::total           153779                       # number of WritebackDirty hits
system.l2.WritebackDirty_accesses::.writebacks       153779                       # number of WritebackDirty accesses(hits+misses)
system.l2.WritebackDirty_accesses::total       153779                       # number of WritebackDirty accesses(hits+misses)
system.l2.WritebackClean_hits::.writebacks          521                       # number of WritebackClean hits
system.l2.WritebackClean_hits::total              521                       # number of WritebackClean hits
system.l2.WritebackClean_accesses::.writebacks          521                       # number of WritebackClean accesses(hits+misses)
system.l2.WritebackClean_accesses::total          521                       # number of WritebackClean accesses(hits+misses)
system.l2.CleanEvict_mshr_misses::.writebacks        32473                       # number of CleanEvict MSHR misses
system.l2.CleanEvict_mshr_misses::total         32473                       # number of CleanEvict MSHR misses
system.l2.CleanEvict_mshr_miss_rate::.writebacks          inf                       # mshr miss rate for CleanEvict accesses
system.l2.CleanEvict_mshr_miss_rate::total          inf                       # mshr miss rate for CleanEvict accesses
system.l2.ReadExReq_hits::.cpu.data               795                       # number of ReadExReq hits
system.l2.ReadExReq_hits::total                   795                       # number of ReadExReq hits
system.l2.ReadExReq_misses::.cpu.data          110602                       # number of ReadExReq misses
system.l2.ReadExReq_misses::total              110602                       # number of ReadExReq misses
system.l2.ReadExReq_miss_latency::.cpu.data   8391737500                       # number of ReadExReq miss cycles
system.l2.ReadExReq_miss_latency::total    8391737500                       # number of ReadExReq miss cycles
system.l2.ReadExReq_accesses::.cpu.data        111397                       # number of ReadExReq accesses(hits+misses)
system.l2.ReadExReq_accesses::total            111397                       # number of ReadExReq accesses(hits+misses)
system.l2.ReadExReq_miss_rate::.cpu.data     0.992863                       # miss rate for ReadExReq accesses
system.l2.ReadExReq_miss_rate::total         0.992863                       # miss rate for ReadExReq accesses
system.l2.ReadExReq_avg_miss_latency::.cpu.data 75873.288910                       # average ReadExReq miss latency
system.l2.ReadExReq_avg_miss_latency::total 75873.288910                       # average ReadExReq miss latency
system.l2.ReadExReq_mshr_misses::.cpu.data       110602                       # number of ReadExReq MSHR misses
system.l2.ReadExReq_mshr_misses::total         110602                       # number of ReadExReq MSHR misses
system.l2.ReadExReq_mshr_miss_latency::.cpu.data   7285717500                       # number of ReadExReq MSHR miss cycles
system.l2.ReadExReq_mshr_miss_latency::total   7285717500                       # number of ReadExReq MSHR miss cycles
system.l2.ReadExReq_mshr_miss_rate::.cpu.data     0.992863                       # mshr miss rate for ReadExReq accesses
system.l2.ReadExReq_mshr_miss_rate::total     0.992863                       # mshr miss rate for ReadExReq accesses
system.l2.ReadExReq_avg_mshr_miss_latency::.cpu.data 65873.288910                       # average ReadExReq mshr miss latency
system.l2.ReadExReq_avg_mshr_miss_latency::total 65873.288910                       # average ReadExReq mshr miss latency
system.l2.ReadCleanReq_hits::.cpu.inst              4                       # number of ReadCleanReq hits
system.l2.ReadCleanReq_hits::total                  4                       # number of ReadCleanReq hits
system.l2.ReadCleanReq_misses::.cpu.inst         3930                       # number of ReadCleanReq misses
system.l2.ReadCleanReq_misses::total             3930                       # number of ReadCleanReq misses
system.l2.ReadCleanReq_miss_latency::.cpu.inst    301943500                       # number of ReadCleanReq miss cycles
system.l2.ReadCleanReq_miss_latency::total    301943500                       # number of ReadCleanReq miss cycles
system.l2.ReadCleanReq_accesses::.cpu.inst         3934                       # number of ReadCleanReq accesses(hits+misses)
system.l2.ReadCleanReq_accesses::total           3934                       # number of ReadCleanReq accesses(hits+misses)
system.l2.ReadCleanReq_miss_rate::.cpu.inst     0.998983                       # miss rate for ReadCleanReq accesses
system.l2.ReadCleanReq_miss_rate::total      0.998983                       # miss rate for ReadCleanReq accesses
system.l2.ReadCleanReq_avg_miss_latency::.cpu.inst 76830.407125                       # average ReadCleanReq miss latency
system.l2.ReadCleanReq_avg_miss_latency::total 76830.407125                       # average ReadCleanReq miss latency
system.l2.ReadCleanReq_mshr_misses::.cpu.inst         3930                       # number of ReadCleanReq MSHR misses
system.l2.ReadCleanReq_mshr_misses::total         3930                       # number of ReadCleanReq MSHR misses
system.l2.ReadCleanReq_mshr_miss_latency::.cpu.inst    262643500                       # number of ReadCleanReq MSHR miss cycles
system.l2.ReadCleanReq_mshr_miss_latency::total    262643500                       # number of ReadCleanReq MSHR miss cycles
system.l2.ReadCleanReq_mshr_miss_rate::.cpu.inst     0.998983                       # mshr miss rate for ReadCleanReq accesses
system.l2.ReadCleanReq_mshr_miss_rate::total     0.998983                       # mshr miss rate for ReadCleanReq accesses
system.l2.ReadCleanReq_avg_mshr_miss_latency::.cpu.inst 66830.407125                       # average ReadCleanReq mshr miss latency
system.l2.ReadCleanReq_avg_mshr_miss_latency::total 66830.407125                       # average ReadCleanReq mshr miss latency
system.l2.ReadSharedReq_hits::.cpu.data          3543                       # number of ReadSharedReq hits
system.l2.ReadSharedReq_hits::total              3543                       # number of ReadSharedReq hits
system.l2.ReadSharedReq_misses::.cpu.data        76673                       # number of ReadSharedReq misses
system.l2.ReadSharedReq_misses::total           76673                       # number of ReadSharedReq misses
system.l2.ReadSharedReq_miss_latency::.cpu.data   6657158000                       # number of ReadSharedReq miss cycles
system.l2.ReadSharedReq_miss_latency::total   6657158000                       # number of ReadSharedReq miss cycles
system.l2.ReadSharedReq_accesses::.cpu.data        80216                       # number of ReadSharedReq accesses(hits+misses)
system.l2.ReadSharedReq_accesses::total         80216                       # number of ReadSharedReq accesses(hits+misses)
system.l2.ReadSharedReq_miss_rate::.cpu.data     0.955832                       # miss rate for ReadSharedReq accesses
system.l2.ReadSharedReq_miss_rate::total     0.955832                       # miss rate for ReadSharedReq accesses
system.l2.ReadSharedReq_avg_miss_latency::.cpu.data 86825.323125                       # average ReadSharedReq miss latency
system.l2.ReadSharedReq_avg_miss_latency::total 86825.323125                       # average ReadSharedReq miss latency
system.l2.ReadSharedReq_mshr_misses::.cpu.data        76673                       # number of ReadSharedReq MSHR misses
system.l2.ReadSharedReq_mshr_misses::total        76673                       # number of ReadSharedReq MSHR misses
system.l2.ReadSharedReq_mshr_miss_latency::.cpu.data   5890428000                       # number of ReadSharedReq MSHR miss cycles
system.l2.ReadSharedReq_mshr_miss_latency::total   5890428000                       # number of ReadSharedReq MSHR miss cycles
system.l2.ReadSharedReq_mshr_miss_rate::.cpu.data     0.955832                       # mshr miss rate for ReadSharedReq accesses
system.l2.ReadSharedReq_mshr_miss_rate::total     0.955832                       # mshr miss rate for ReadSharedReq accesses
system.l2.ReadSharedReq_avg_mshr_miss_latency::.cpu.data 76825.323125                       # average ReadSharedReq mshr miss latency
system.l2.ReadSharedReq_avg_mshr_miss_latency::total 76825.323125                       # average ReadSharedReq mshr miss latency
system.l2.power_state.pwrStateResidencyTicks::UNDEFINED 137374978500                       # Cumulative time (in ticks) in various power states
system.l2.tags.tagsinuse                  4085.882226                       # Cycle average of tags in use
system.l2.tags.total_refs                      351112                       # Total number of references to valid blocks.
system.l2.tags.sampled_refs                    343040                       # Sample count of references to valid blocks.
system.l2.tags.avg_refs                      1.023531                       # Average number of references to valid blocks.
system.l2.tags.warmup_cycle                     77000                       # Cycle when the warmup percentage was hit.
system.l2.tags.occ_blocks::.writebacks    1928.375796                       # Average occupied blocks per requestor
system.l2.tags.occ_blocks::.cpu.inst        34.173563                       # Average occupied blocks per requestor
system.l2.tags.occ_blocks::.cpu.data      2123.332868                       # Average occupied blocks per requestor
system.l2.tags.occ_percent::.writebacks      0.470795                       # Average percentage of cache occupancy
system.l2.tags.occ_percent::.cpu.inst        0.008343                       # Average percentage of cache occupancy
system.l2.tags.occ_percent::.cpu.data        0.518392                       # Average percentage of cache occupancy
system.l2.tags.occ_percent::total            0.997530                       # Average percentage of cache occupancy
system.l2.tags.occ_task_id_blocks::1024          4096                       # Occupied blocks per task id
system.l2.tags.age_task_id_blocks_1024::0          155                       # Occupied blocks per task id
system.l2.tags.age_task_id_blocks_1024::1         1083                       # Occupied blocks per task id
system.l2.tags.age_task_id_blocks_1024::2         2858                       # Occupied blocks per task id
system.l2.tags.occ_task_id_percent::1024            1                       # Percentage of cache occupancy per task id
system.l2.tags.tag_accesses                   1110210                       # Number of tag accesses
system.l2.tags.data_accesses                  1110210                       # Number of data accesses
system.l2.tags.power_state.pwrStateResidencyTicks::UNDEFINED 137374978500                       # Cumulative time (in ticks) in various power states
system.mem_ctrls.avgPriority_.writebacks::samples     77551.00                       # Average QoS priority value for accepted requests
system.mem_ctrls.avgPriority_.cpu.inst::samples      3930.00                       # Average QoS priority value for accepted requests
system.mem_ctrls.avgPriority_.cpu.data::samples    184160.00                       # Average QoS priority value for accepted requests
system.mem_ctrls.priorityMinLatency      0.000000018750                       # per QoS priority minimum request to response latency (s)
system.mem_ctrls.priorityMaxLatency      0.032582070750                       # per QoS priority maximum request to response latency (s)
system.mem_ctrls.numReadWriteTurnArounds         4367                       # Number of turnarounds from READ to WRITE
system.mem_ctrls.numWriteReadTurnArounds         4367                       # Number of turnarounds from WRITE to READ
system.mem_ctrls.numStayReadState              558228                       # Number of times bus staying in READ state
system.mem_ctrls.numStayWriteState              73232                       # Number of times bus staying in WRITE state
system.mem_ctrls.readReqs                      191205                       # Number of read requests accepted
system.mem_ctrls.writeReqs                     147652                       # Number of write requests accepted
system.mem_ctrls.readBursts                    191205                       # Number of controller read bursts, including those serviced by the write queue
system.mem_ctrls.writeBursts                   147652                       # Number of controller write bursts, including those merged in the write queue
system.mem_ctrls.servicedByWrQ                   3115                       # Number of controller read bursts serviced by the write queue
system.mem_ctrls.mergedWrBursts                 70101                       # Number of controller write bursts merged with an existing one
system.mem_ctrls.neitherReadNorWriteReqs            0                       # Number of requests that are neither read nor write
system.mem_ctrls.avgRdQLen                       1.00                       # Average read queue length when enqueuing
system.mem_ctrls.avgWrQLen                      22.96                       # Average write queue length when enqueuing
system.mem_ctrls.numRdRetry                         0                       # Number of times read queue was full causing retry
system.mem_ctrls.numWrRetry                         0                       # Number of times write queue was full causing retry
system.mem_ctrls.readPktSize::0                     0                       # Read request sizes (log2)
system.mem_ctrls.readPktSize::1                     0                       # Read request sizes (log2)
system.mem_ctrls.readPktSize::2                     0                       # Read request sizes (log2)
system.mem_ctrls.readPktSize::3                     0                       # Read request sizes (log2)
system.mem_ctrls.readPktSize::4                     0                       # Read request sizes (log2)
system.mem_ctrls.readPktSize::5                191205                       # Read request sizes (log2)
system.mem_ctrls.writePktSize::0                    0                       # Write request sizes (log2)
system.mem_ctrls.writePktSize::1                    0                       # Write request sizes (log2)
system.mem_ctrls.writePktSize::2                    0                       # Write request sizes (log2)
system.mem_ctrls.writePktSize::3                    0                       # Write request sizes (log2)
system.mem_ctrls.writePktSize::4                    0                       # Write request sizes (log2)
system.mem_ctrls.writePktSize::5               147652                       # Write request sizes (log2)
system.mem_ctrls.rdQLenPdf::0                  188069                       # What read queue length does an incoming req see
system.mem_ctrls.rdQLenPdf::1                      21                       # What read queue length does an incoming req see
system.mem_ctrls.rdQLenPdf::2                       0                       # What read queue length does an incoming req see
system.mem_ctrls.rdQLenPdf::3                       0                       # What read queue length does an incoming req see
system.mem_ctrls.rdQLenPdf::4                       0                       # What read queue length does an incoming req see
system.mem_ctrls.rdQLenPdf::5                       0                       # What read queue length does an incoming req see
system.mem_ctrls.rdQLenPdf::6                       0                       # What read queue length does an incoming req see
system.mem_ctrls.rdQLenPdf::7                       0                       # What read queue length does an incoming req see
system.mem_ctrls.rdQLenPdf::8                       0                       # What read queue length does an incoming req see
system.mem_ctrls.rdQLenPdf::9                       0                       # What read queue length does an incoming req see
system.mem_ctrls.rdQLenPdf::10                      0                       # What read queue length does an incoming req see
system.mem_ctrls.rdQLenPdf::11                      0                       # What read queue length does an incoming req see
system.mem_ctrls.rdQLenPdf::12                      0                       # What read queue length does an incoming req see
system.mem_ctrls.rdQLenPdf::13                      0                       # What read queue length does an incoming req see
system.mem_ctrls.rdQLenPdf::14                      0                       # What read queue length does an incoming req see
system.mem_ctrls.rdQLenPdf::15                      0                       # What read queue length does an incoming req see
system.mem_ctrls.rdQLenPdf::16                      0                       # What read queue length does an incoming req see
system.mem_ctrls.rdQLenPdf::17                      0                       # What read queue length does an incoming req see
system.mem_ctrls.rdQLenPdf::18                      0                       # What read queue length does an incoming req see
system.mem_ctrls.rdQLenPdf::19                      0                       # What read queue length does an incoming req see
system.mem_ctrls.rdQLenPdf::20                      0                       # What read queue length does an incoming req see
system.mem_ctrls.rdQLenPdf::21                      0                       # What read queue length does an incoming req see
system.mem_ctrls.rdQLenPdf::22                      0                       # What read queue length does an incoming req see
system.mem_ctrls.rdQLenPdf::23                      0                       # What read queue length does an incoming req see
system.mem_ctrls.rdQLenPdf::24                      0                       # What read queue length does an incoming req see
system.mem_ctrls.rdQLenPdf::25                      0                       # What read queue length does an incoming req see
system.mem_ctrls.rdQLenPdf::26                      0                       # What read queue length does an incoming req see
system.mem_ctrls.rdQLenPdf::27                      0                       # What read queue length does an incoming req see
system.mem_ctrls.rdQLenPdf::28                      0                       # What read queue length does an incoming req see
system.mem_ctrls.rdQLenPdf::29                      0                       # What read queue length does an incoming req see
system.mem_ctrls.rdQLenPdf::30                      0                       # What read queue length does an incoming req see
system.mem_ctrls.rdQLenPdf::31                      0                       # What read queue length does an incoming req see
system.mem_ctrls.wrQLenPdf::0                       1                       # What write queue length does an incoming req see
system.mem_ctrls.wrQLenPdf::1                       1                       # What write queue length does an incoming req see
system.mem_ctrls.wrQLenPdf::2                       1                       # What write queue length does an incoming req see
system.mem_ctrls.wrQLenPdf::3                       1                       # What write queue length does an incoming req see
system.mem_ctrls.wrQLenPdf::4                       1                       # What write queue length does an incoming req see
system.mem_ctrls.wrQLenPdf::5                       1                       # What write queue length does an incoming req see
system.mem_ctrls.wrQLenPdf::6                       1                       # What write queue length does an incoming req see
system.mem_ctrls.wrQLenPdf::7                       1                       # What write queue length does an incoming req see
system.mem_ctrls.wrQLenPdf::8                       1                       # What write queue length does an incoming req see
system.mem_ctrls.wrQLenPdf::9                       1                       # What write queue length does an incoming req see
system.mem_ctrls.wrQLenPdf::10                      1                       # What write queue length does an incoming req see
system.mem_ctrls.wrQLenPdf::11                      1                       # What write queue length does an incoming req see
system.mem_ctrls.wrQLenPdf::12                      1                       # What write queue length does an incoming req see
system.mem_ctrls.wrQLenPdf::13                      1                       # What write queue length does an incoming req see
system.mem_ctrls.wrQLenPdf::14                      1                       # What write queue length does an incoming req see
system.mem_ctrls.wrQLenPdf::15                   3814                       # What write queue length does an incoming req see
system.mem_ctrls.wrQLenPdf::16                   3830                       # What write queue length does an incoming req see
system.mem_ctrls.wrQLenPdf::17                   4370                       # What write queue length does an incoming req see
system.mem_ctrls.wrQLenPdf::18                   4368                       # What write queue length does an incoming req see
system.mem_ctrls.wrQLenPdf::19                   4368                       # What write queue length does an incoming req see
system.mem_ctrls.wrQLenPdf::20                   4370                       # What write queue length does an incoming req see
system.mem_ctrls.wrQLenPdf::21                   4370                       # What write queue length does an incoming req see
system.mem_ctrls.wrQLenPdf::22                   4368                       # What write queue length does an incoming req see
system.mem_ctrls.wrQLenPdf::23                   4368                       # What write queue length does an incoming req see
system.mem_ctrls.wrQLenPdf::24                   4368                       # What write queue length does an incoming req see
system.mem_ctrls.wrQLenPdf::25                   4368                       # What write queue length does an incoming req see
system.mem_ctrls.wrQLenPdf::26                   4368                       # What write queue length does an incoming req see
system.mem_ctrls.wrQLenPdf::27                   4368                       # What write queue length does an incoming req see
system.mem_ctrls.wrQLenPdf::28                   4368                       # What write queue length does an incoming req see
system.mem_ctrls.wrQLenPdf::29                   4369                       # What write queue length does an incoming req see
system.mem_ctrls.wrQLenPdf::30                   4367                       # What write queue length does an incoming req see
system.mem_ctrls.wrQLenPdf::31                   4367                       # What write queue length does an incoming req see
system.mem_ctrls.wrQLenPdf::32                   4367                       # What write queue length does an incoming req see
system.mem_ctrls.wrQLenPdf::33                      0                       # What write queue length does an incoming req see
system.mem_ctrls.wrQLenPdf::34                      0                       # What write queue length does an incoming req see
system.mem_ctrls.wrQLenPdf::35                      0                       # What write queue length does an incoming req see
system.mem_ctrls.wrQLenPdf::36                      0                       # What write queue length does an incoming req see
system.mem_ctrls.wrQLenPdf::37                      0                       # What write queue length does an incoming req see
system.mem_ctrls.wrQLenPdf::38                      0                       # What write queue length does an incoming req see
system.mem_ctrls.wrQLenPdf::39                      0                       # What write queue length does an incoming req see
system.mem_ctrls.wrQLenPdf::40                      0                       # What write queue length does an incoming req see
system.mem_ctrls.wrQLenPdf::41                      0                       # What write queue length does an incoming req see
system.mem_ctrls.wrQLenPdf::42                      0                       # What write queue length does an incoming req see
system.mem_ctrls.wrQLenPdf::43                      0                       # What write queue length does an incoming req see
system.mem_ctrls.wrQLenPdf::44                      0                       # What write queue length does an incoming req see
system.mem_ctrls.wrQLenPdf::45                      0                       # What write queue length does an incoming req see
system.mem_ctrls.wrQLenPdf::46                      0                       # What write queue length does an incoming req see
system.mem_ctrls.wrQLenPdf::47                      0                       # What write queue length does an incoming req see
system.mem_ctrls.wrQLenPdf::48                      0                       # What write queue length does an incoming req see
system.mem_ctrls.wrQLenPdf::49                      0                       # What write queue length does an incoming req see
system.mem_ctrls.wrQLenPdf::50                      0                       # What write queue length does an incoming req see
system.mem_ctrls.wrQLenPdf::51                      0                       # What write queue length does an incoming req see
system.mem_ctrls.wrQLenPdf::52                      0                       # What write queue length does an incoming req see
system.mem_ctrls.wrQLenPdf::53                      0                       # What write queue length does an incoming req see
system.mem_ctrls.wrQLenPdf::54                      0                       # What write queue length does an incoming req see
system.mem_ctrls.wrQLenPdf::55                      0                       # What write queue length does an incoming req see
system.mem_ctrls.wrQLenPdf::56                      0                       # What write queue length does an incoming req see
system.mem_ctrls.wrQLenPdf::57                      0                       # What write queue length does an incoming req see
system.mem_ctrls.wrQLenPdf::58                      0                       # What write queue length does an incoming req see
system.mem_ctrls.wrQLenPdf::59                      0                       # What write queue length does an incoming req see
system.mem_ctrls.wrQLenPdf::60                      0                       # What write queue length does an incoming req see
system.mem_ctrls.wrQLenPdf::61                      0                       # What write queue length does an incoming req see
system.mem_ctrls.wrQLenPdf::62                      0                       # What write queue length does an incoming req see
system.mem_ctrls.wrQLenPdf::63                      0                       # What write queue length does an incoming req see
system.mem_ctrls.rdPerTurnAround::samples         4367                       # Reads before turning the bus around for writes
system.mem_ctrls.rdPerTurnAround::mean      43.062056                       # Reads before turning the bus around for writes
system.mem_ctrls.rdPerTurnAround::gmean     37.491389                       # Reads before turning the bus around for writes
system.mem_ctrls.rdPerTurnAround::stdev     92.856743                       # Reads before turning the bus around for writes
system.mem_ctrls.rdPerTurnAround::0-255          4343     99.45%     99.45% # Reads before turning the bus around for writes
system.mem_ctrls.rdPerTurnAround::256-511           17      0.39%     99.84% # Reads before turning the bus around for writes
system.mem_ctrls.rdPerTurnAround::512-767            1      0.02%     99.86% # Reads before turning the bus around for writes
system.mem_ctrls.rdPerTurnAround::768-1023            1      0.02%     99.89% # Reads before turning the bus around for writes
system.mem_ctrls.rdPerTurnAround::1024-1279            2      0.05%     99.93% # Reads before turning the bus around for writes
system.mem_ctrls.rdPerTurnAround::1536-1791            1      0.02%     99.95% # Reads before turning the bus around for writes
system.mem_ctrls.rdPerTurnAround::3072-3327            1      0.02%     99.98% # Reads before turning the bus around for writes
system.mem_ctrls.rdPerTurnAround::4096-4351            1      0.02%    100.00% # Reads before turning the bus around for writes
system.mem_ctrls.rdPerTurnAround::total          4367                       # Reads before turning the bus around for writes
system.mem_ctrls.wrPerTurnAround::samples         4367                       # Writes before turning the bus around for reads
system.mem_ctrls.wrPerTurnAround::mean      17.751546                       # Writes before turning the bus around for reads
system.mem_ctrls.wrPerTurnAround::gmean     17.738506                       # Writes before turning the bus around for reads
system.mem_ctrls.wrPerTurnAround::stdev      0.660971                       # Writes before turning the bus around for reads
system.mem_ctrls.wrPerTurnAround::16              539     12.34%     12.34% # Writes before turning the bus around for reads
system.mem_ctrls.wrPerTurnAround::17               14      0.32%     12.66% # Writes before turning the bus around for reads
system.mem_ctrls.wrPerTurnAround::18             3807     87.18%     99.84% # Writes before turning the bus around for reads
system.mem_ctrls.wrPerTurnAround::19                7      0.16%    100.00% # Writes before turning the bus around for reads
system.mem_ctrls.wrPerTurnAround::total          4367                       # Writes before turning the bus around for reads
system.mem_ctrls.bytesReadWrQ                  199360                       # Total number of bytes read from write queue
system.mem_ctrls.bytesReadSys                 6118560                       # Total read bytes from the system interface side
system.mem_ctrls.bytesWrittenSys              4724864                       # Total written bytes from the system interface side
system.mem_ctrls.avgRdBWSys                     44.54                       # Average system read bandwidth in MiByte/s
system.mem_ctrls.avgWrBWSys                     34.39                       # Average system write bandwidth in MiByte/s
system.mem_ctrls.totGap                  137374904500                       # Total gap between requests
[...]
system.mem_ctrls.dram.bw_total::.cpu.data     43623665                       # Total bandwidth to/from this memory (bytes/s)
system.mem_ctrls.dram.bw_total::total        78933035                       # Total bandwidth to/from this memory (bytes/s)
system.mem_ctrls.dram.readBursts               188090                       # Number of DRAM read bursts
system.mem_ctrls.dram.writeBursts               77521                       # Number of DRAM write bursts
system.mem_ctrls.dram.perBankRdBursts::0        12463                       # Per bank write bursts
system.mem_ctrls.dram.perBankRdBursts::1        12012                       # Per bank write bursts
system.mem_ctrls.dram.perBankRdBursts::2        11601                       # Per bank write bursts
system.mem_ctrls.dram.perBankRdBursts::3        12581                       # Per bank write bursts
system.mem_ctrls.dram.perBankRdBursts::4        11375                       # Per bank write bursts
system.mem_ctrls.dram.perBankRdBursts::5        11063                       # Per bank write bursts
system.mem_ctrls.dram.perBankRdBursts::6        11143                       # Per bank write bursts
system.mem_ctrls.dram.perBankRdBursts::7        11624                       # Per bank write bursts
system.mem_ctrls.dram.perBankRdBursts::8        11957                       # Per bank write bursts
system.mem_ctrls.dram.perBankRdBursts::9        12393                       # Per bank write bursts
system.mem_ctrls.dram.perBankRdBursts::10        12545                       # Per bank write bursts
system.mem_ctrls.dram.perBankRdBursts::11        11740                       # Per bank write bursts
system.mem_ctrls.dram.perBankRdBursts::12        11143                       # Per bank write bursts
system.mem_ctrls.dram.perBankRdBursts::13        11024                       # Per bank write bursts
system.mem_ctrls.dram.perBankRdBursts::14        11380                       # Per bank write bursts
system.mem_ctrls.dram.perBankRdBursts::15        12046                       # Per bank write bursts
system.mem_ctrls.dram.perBankWrBursts::0         5102                       # Per bank write bursts
system.mem_ctrls.dram.perBankWrBursts::1         4909                       # Per bank write bursts
system.mem_ctrls.dram.perBankWrBursts::2         4881                       # Per bank write bursts
system.mem_ctrls.dram.perBankWrBursts::3         5008                       # Per bank write bursts
system.mem_ctrls.dram.perBankWrBursts::4         4524                       # Per bank write bursts
system.mem_ctrls.dram.perBankWrBursts::5         4581                       # Per bank write bursts
system.mem_ctrls.dram.perBankWrBursts::6         4938                       # Per bank write bursts
system.mem_ctrls.dram.perBankWrBursts::7         4481                       # Per bank write bursts
system.mem_ctrls.dram.perBankWrBursts::8         5128                       # Per bank write bursts
system.mem_ctrls.dram.perBankWrBursts::9         5032                       # Per bank write bursts
system.mem_ctrls.dram.perBankWrBursts::10         5095                       # Per bank write bursts
system.mem_ctrls.dram.perBankWrBursts::11         4949                       # Per bank write bursts
system.mem_ctrls.dram.perBankWrBursts::12         4810                       # Per bank write bursts
system.mem_ctrls.dram.perBankWrBursts::13         4590                       # Per bank write bursts
system.mem_ctrls.dram.perBankWrBursts::14         4790                       # Per bank write bursts
system.mem_ctrls.dram.perBankWrBursts::15         4703                       # Per bank write bursts
system.mem_ctrls.dram.totQLat              2126648500                       # Total ticks spent queuing
system.mem_ctrls.dram.totBusLat             940450000                       # Total ticks spent in databus transfers
system.mem_ctrls.dram.totMemAccLat         5653336000                       # Total ticks spent from burst creation until serviced by the DRAM
system.mem_ctrls.dram.avgQLat                11306.55                       # Average queueing delay per DRAM burst
system.mem_ctrls.dram.avgBusLat               5000.00                       # Average bus latency per DRAM burst
system.mem_ctrls.dram.avgMemAccLat           30056.55                       # Average memory access latency per DRAM burst
system.mem_ctrls.dram.readRowHits              122259                       # Number of row buffer hits during reads
system.mem_ctrls.dram.writeRowHits              67384                       # Number of row buffer hits during writes
system.mem_ctrls.dram.readRowHitRate            65.00                       # Row buffer hit rate for reads
system.mem_ctrls.dram.writeRowHitRate           86.92                       # Row buffer hit rate for writes
system.mem_ctrls.dram.bytesPerActivate::samples        75962                       # Bytes accessed per row activation
system.mem_ctrls.dram.bytesPerActivate::mean   223.767463                       # Bytes accessed per row activation
system.mem_ctrls.dram.bytesPerActivate::gmean   130.794754                       # Bytes accessed per row activation
system.mem_ctrls.dram.bytesPerActivate::stdev   274.224317                       # Bytes accessed per row activation
system.mem_ctrls.dram.bytesPerActivate::0-127        43517     57.29%     57.29% # Bytes accessed per row activation
system.mem_ctrls.dram.bytesPerActivate::128-255         9001     11.85%     69.14% # Bytes accessed per row activation
system.mem_ctrls.dram.bytesPerActivate::256-383        10977     14.45%     83.59% # Bytes accessed per row activation
system.mem_ctrls.dram.bytesPerActivate::384-511         1483      1.95%     85.54% # Bytes accessed per row activation
system.mem_ctrls.dram.bytesPerActivate::512-639         2214      2.91%     88.45% # Bytes accessed per row activation
system.mem_ctrls.dram.bytesPerActivate::640-767         1934      2.55%     91.00% # Bytes accessed per row activation
system.mem_ctrls.dram.bytesPerActivate::768-895         1283      1.69%     92.69% # Bytes accessed per row activation
system.mem_ctrls.dram.bytesPerActivate::896-1023         1141      1.50%     94.19% # Bytes accessed per row activation
system.mem_ctrls.dram.bytesPerActivate::1024-1151         4412      5.81%    100.00% # Bytes accessed per row activation
system.mem_ctrls.dram.bytesPerActivate::total        75962                       # Bytes accessed per row activation
system.mem_ctrls.dram.bytesRead              12037760                       # Total number of bytes read from DRAM
system.mem_ctrls.dram.bytesWritten            4961344                       # Total number of bytes written to DRAM
system.mem_ctrls.dram.avgRdBW               87.627020                       # Average DRAM read bandwidth in MiBytes/s
system.mem_ctrls.dram.avgWrBW               36.115340                       # Average DRAM write bandwidth in MiBytes/s
system.mem_ctrls.dram.peakBW                 12800.00                       # Theoretical peak bandwidth in MiByte/s
system.mem_ctrls.dram.busUtil                    0.97                       # Data bus utilization in percentage
system.mem_ctrls.dram.busUtilRead                0.68                       # Data bus utilization in percentage for reads
system.mem_ctrls.dram.busUtilWrite               0.28                       # Data bus utilization in percentage for writes
system.mem_ctrls.dram.pageHitRate               71.40                       # Row buffer hit rate, read and write combined
system.mem_ctrls.dram.power_state.pwrStateResidencyTicks::UNDEFINED 137374978500                       # Cumulative time (in ticks) in various power states
system.mem_ctrls.dram.rank0.actEnergy       268549680                       # Energy for activate commands per rank (pJ)
system.mem_ctrls.dram.rank0.preEnergy       142729950                       # Energy for precharge commands per rank (pJ)
system.mem_ctrls.dram.rank0.readEnergy      670174680                       # Energy for read commands per rank (pJ)
system.mem_ctrls.dram.rank0.writeEnergy     200573280                       # Energy for write commands per rank (pJ)
system.mem_ctrls.dram.rank0.refreshEnergy 10844093520.000002                       # Energy for refresh commands per rank (pJ)
system.mem_ctrls.dram.rank0.actBackEnergy  24521693550                       # Energy for active background per rank (pJ)
system.mem_ctrls.dram.rank0.preBackEnergy  32102144640                       # Energy for precharge background per rank (pJ)
system.mem_ctrls.dram.rank0.actPowerDownEnergy            0                       # Energy for active power-down per rank (pJ)
system.mem_ctrls.dram.rank0.prePowerDownEnergy            0                       # Energy for precharge power-down per rank (pJ)
system.mem_ctrls.dram.rank0.selfRefreshEnergy            0                       # Energy for self refresh per rank (pJ)
system.mem_ctrls.dram.rank0.totalEnergy   68749959300                       # Total energy per rank (pJ)
system.mem_ctrls.dram.rank0.averagePower   500.454741                       # Core power per rank (mW)
system.mem_ctrls.dram.rank0.totalIdleTime            0                       # Total Idle time Per DRAM Rank
system.mem_ctrls.dram.rank0.pwrStateTime::IDLE  83074676500                       # Time in different power states
system.mem_ctrls.dram.rank0.pwrStateTime::REF   4587180000                       # Time in different power states
system.mem_ctrls.dram.rank0.pwrStateTime::SREF            0                       # Time in different power states
system.mem_ctrls.dram.rank0.pwrStateTime::PRE_PDN            0                       # Time in different power states
system.mem_ctrls.dram.rank0.pwrStateTime::ACT  49713122000                       # Time in different power states
system.mem_ctrls.dram.rank0.pwrStateTime::ACT_PDN            0                       # Time in different power states
system.mem_ctrls.dram.rank1.actEnergy       273861840                       # Energy for activate commands per rank (pJ)
system.mem_ctrls.dram.rank1.preEnergy       145545840                       # Energy for precharge commands per rank (pJ)
system.mem_ctrls.dram.rank1.readEnergy      672787920                       # Energy for read commands per rank (pJ)
system.mem_ctrls.dram.rank1.writeEnergy     204086340                       # Energy for write commands per rank (pJ)
system.mem_ctrls.dram.rank1.refreshEnergy 10844093520.000002                       # Energy for refresh commands per rank (pJ)
system.mem_ctrls.dram.rank1.actBackEnergy  25051138620                       # Energy for active background per rank (pJ)
system.mem_ctrls.dram.rank1.preBackEnergy  31656296160                       # Energy for precharge background per rank (pJ)
system.mem_ctrls.dram.rank1.actPowerDownEnergy            0                       # Energy for active power-down per rank (pJ)
system.mem_ctrls.dram.rank1.prePowerDownEnergy            0                       # Energy for precharge power-down per rank (pJ)
system.mem_ctrls.dram.rank1.selfRefreshEnergy            0                       # Energy for self refresh per rank (pJ)
system.mem_ctrls.dram.rank1.totalEnergy   68847810240                       # Total energy per rank (pJ)
system.mem_ctrls.dram.rank1.averagePower   501.167032                       # Core power per rank (mW)
system.mem_ctrls.dram.rank1.totalIdleTime            0                       # Total Idle time Per DRAM Rank
system.mem_ctrls.dram.rank1.pwrStateTime::IDLE  81852805250                       # Time in different power states
system.mem_ctrls.dram.rank1.pwrStateTime::REF   4587180000                       # Time in different power states
system.mem_ctrls.dram.rank1.pwrStateTime::SREF            0                       # Time in different power states
system.mem_ctrls.dram.rank1.pwrStateTime::PRE_PDN            0                       # Time in different power states
system.mem_ctrls.dram.rank1.pwrStateTime::ACT  50934993250                       # Time in different power states
system.mem_ctrls.dram.rank1.pwrStateTime::ACT_PDN            0                       # Time in different power states
system.mem_ctrls.power_state.pwrStateResidencyTicks::UNDEFINED 137374978500                       # Cumulative time (in ticks) in various power states
system.membus.trans_dist::ReadResp              80603                       # Transaction distribution
system.membus.trans_dist::WritebackDirty       147652                       # Transaction distribution
system.membus.trans_dist::CleanEvict            33938                       # Transaction distribution
system.membus.trans_dist::ReadExReq            110602                       # Transaction distribution
system.membus.trans_dist::ReadExResp           110602                       # Transaction distribution
system.membus.trans_dist::ReadSharedReq         80603                       # Transaction distribution
system.membus.pkt_count_system.l2.mem_side_port::system.mem_ctrls.port       564000                       # Packet count per connected requestor and responder (bytes)
system.membus.pkt_count_system.l2.mem_side_port::total       564000                       # Packet count per connected requestor and responder (bytes)
system.membus.pkt_count::total                 564000                       # Packet count per connected requestor and responder (bytes)
system.membus.pkt_size_system.l2.mem_side_port::system.mem_ctrls.port     10843424                       # Cumulative packet size per connected requestor and responder (bytes)
system.membus.pkt_size_system.l2.mem_side_port::total     10843424                       # Cumulative packet size per connected requestor and responder (bytes)
system.membus.pkt_size::total                10843424                       # Cumulative packet size per connected requestor and responder (bytes)
system.membus.snoops                                0                       # Total snoops (count)
system.membus.snoopTraffic                          0                       # Total snoop traffic (bytes)
system.membus.snoop_fanout::samples            191205                       # Request fanout histogram
system.membus.snoop_fanout::mean                    0                       # Request fanout histogram
system.membus.snoop_fanout::stdev                   0                       # Request fanout histogram
system.membus.snoop_fanout::underflows              0      0.00%      0.00% # Request fanout histogram
system.membus.snoop_fanout::0                  191205    100.00%    100.00% # Request fanout histogram
system.membus.snoop_fanout::1                       0      0.00%    100.00% # Request fanout histogram
system.membus.snoop_fanout::overflows               0      0.00%    100.00% # Request fanout histogram
system.membus.snoop_fanout::min_value               0                       # Request fanout histogram
system.membus.snoop_fanout::max_value               0                       # Request fanout histogram
system.membus.snoop_fanout::total              191205                       # Request fanout histogram
system.membus.power_state.pwrStateResidencyTicks::UNDEFINED 137374978500                       # Cumulative time (in ticks) in various power states
system.membus.reqLayer2.occupancy           668139500                       # Layer occupancy (ticks)
system.membus.reqLayer2.utilization               0.5                       # Layer utilization (%)
system.membus.respLayer1.occupancy          646254000                       # Layer occupancy (ticks)
system.membus.respLayer1.utilization              0.5                       # Layer utilization (%)
system.tol2bus.trans_dist::ReadResp             84150                       # Transaction distribution
system.tol2bus.trans_dist::WritebackDirty       301431                       # Transaction distribution
system.tol2bus.trans_dist::WritebackClean          521                       # Transaction distribution
system.tol2bus.trans_dist::CleanEvict          225030                       # Transaction distribution
system.tol2bus.trans_dist::ReadExReq           111397                       # Transaction distribution
system.tol2bus.trans_dist::ReadExResp          111397                       # Transaction distribution
system.tol2bus.trans_dist::ReadCleanReq          3934                       # Transaction distribution
system.tol2bus.trans_dist::ReadSharedReq        80216                       # Transaction distribution
system.tol2bus.pkt_count_system.cpu.icache.mem_side_port::system.l2.cpu_side_port         8389                       # Packet count per connected requestor and responder (bytes)
system.tol2bus.pkt_count_system.cpu.dcache.mem_side_port::system.l2.cpu_side_port       570743                       # Packet count per connected requestor and responder (bytes)
system.tol2bus.pkt_count::total                579132                       # Packet count per connected requestor and responder (bytes)
system.tol2bus.pkt_size_system.cpu.icache.mem_side_port::system.l2.cpu_side_port       142560                       # Cumulative packet size per connected requestor and responder (bytes)
system.tol2bus.pkt_size_system.cpu.dcache.mem_side_port::system.l2.cpu_side_port     11052544                       # Cumulative packet size per connected requestor and responder (bytes)
system.tol2bus.pkt_size::total               11195104                       # Cumulative packet size per connected requestor and responder (bytes)
system.tol2bus.snoops                          338944                       # Total snoops (count)
system.tol2bus.snoopTraffic                   4724864                       # Total snoop traffic (bytes)
system.tol2bus.snoop_fanout::samples           534491                       # Request fanout histogram
system.tol2bus.snoop_fanout::mean            0.355155                       # Request fanout histogram
system.tol2bus.snoop_fanout::stdev           0.478561                       # Request fanout histogram
system.tol2bus.snoop_fanout::underflows             0      0.00%      0.00% # Request fanout histogram
system.tol2bus.snoop_fanout::0                 344664     64.48%     64.48% # Request fanout histogram
system.tol2bus.snoop_fanout::1                 189827     35.52%    100.00% # Request fanout histogram
system.tol2bus.snoop_fanout::2                      0      0.00%    100.00% # Request fanout histogram
system.tol2bus.snoop_fanout::3                      0      0.00%    100.00% # Request fanout histogram
system.tol2bus.snoop_fanout::4                      0      0.00%    100.00% # Request fanout histogram
system.tol2bus.snoop_fanout::overflows              0      0.00%    100.00% # Request fanout histogram
system.tol2bus.snoop_fanout::min_value              0                       # Request fanout histogram
system.tol2bus.snoop_fanout::max_value              1                       # Request fanout histogram
system.tol2bus.snoop_fanout::total             534491                       # Request fanout histogram
system.tol2bus.power_state.pwrStateResidencyTicks::UNDEFINED 137374978500                       # Cumulative time (in ticks) in various power states
system.tol2bus.reqLayer0.occupancy          268942500                       # Layer occupancy (ticks)
system.tol2bus.reqLayer0.utilization              0.2                       # Layer utilization (%)
system.tol2bus.respLayer0.occupancy           3934000                       # Layer occupancy (ticks)
system.tol2bus.respLayer0.utilization             0.0                       # Layer utilization (%)
system.tol2bus.respLayer1.occupancy         191613000                       # Layer occupancy (ticks)
system.tol2bus.respLayer1.utilization             0.1                       # Layer utilization (%)
system.voltage_domain.voltage                       1                       # Voltage in Volts

---------- End Simulation Statistics   ----------
