
---------- Begin Simulation Statistics ----------
final_tick                               187556781500                       # Number of ticks from beginning of simulation (restored from checkpoints and never reset)
host_inst_rate                                 544797                       # Simulator instruction rate (inst/s)
host_mem_usage                                 708296                       # Number of bytes of host memory used
host_op_rate                                   861354                       # Simulator op (including micro ops) rate (op/s)
host_seconds                                   183.55                       # Real time elapsed on the host
host_tick_rate                             1021802703                       # Simulator tick rate (ticks/s)
sim_freq                                 1000000000000                       # Frequency of simulated ticks
sim_insts                                   100000001                       # Number of instructions simulated
sim_ops                                     158105592                       # Number of ops (including micro ops) simulated
sim_seconds                                  0.187557                       # Number of seconds simulated
sim_ticks                                187556781500                       # Number of ticks simulated
system.cpu.Branches                           8068245                       # Number of branches fetched
system.cpu.committedInsts                   100000001                       # Number of instructions committed
system.cpu.committedOps                     158105592                       # Number of ops (including micro ops) committed
system.cpu.idle_fraction                            0                       # Percentage of idle cycles
system.cpu.not_idle_fraction                        1                       # Percentage of non-idle cycles
system.cpu.numCycles                        375113563                       # number of cpu cycles simulated
system.cpu.numWorkItemsCompleted                    0                       # number of work items this cpu completed
system.cpu.numWorkItemsStarted                      0                       # number of work items this cpu started
system.cpu.num_busy_cycles                  375113563                       # Number of busy cycles
system.cpu.num_cc_register_reads             26309364                       # number of times the CC registers were read
system.cpu.num_cc_register_writes            50490369                       # number of times the CC registers were written
system.cpu.num_conditional_control_insts      4194429                       # number of instructions that are conditional controls
system.cpu.num_fp_alu_accesses               33007950                       # Number of float alu accesses
system.cpu.num_fp_insts                      33007950                       # number of float instructions
system.cpu.num_fp_register_reads             36021489                       # number of times the floating registers were read
system.cpu.num_fp_register_writes            28984633                       # number of times the floating registers were written
system.cpu.num_func_calls                      911313                       # number of times a function call or return occured
system.cpu.num_idle_cycles                          0                       # Number of idle cycles
system.cpu.num_int_alu_accesses             137710574                       # Number of integer alu accesses
system.cpu.num_int_insts                    137710574                       # number of integer instructions
system.cpu.num_int_register_reads           303623416                       # number of times the integer registers were read
system.cpu.num_int_register_writes          116067071                       # number of times the integer registers were written
system.cpu.num_load_insts                    42950395                       # Number of load instructions
system.cpu.num_mem_refs                      50914575                       # number of memory refs
system.cpu.num_store_insts                    7964180                       # Number of store instructions
system.cpu.num_vec_alu_accesses                     0                       # Number of vector alu accesses
system.cpu.num_vec_insts                            0                       # number of vector instructions
system.cpu.num_vec_register_reads                   0                       # number of times the vector registers were read
system.cpu.num_vec_register_writes                  0                       # number of times the vector registers were written
system.cpu.op_class::No_OpClass                737110      0.47%      0.47% # Class of executed instruction
system.cpu.op_class::IntAlu                  83725076     52.96%     53.42% # Class of executed instruction
system.cpu.op_class::IntMult                  3991004      2.52%     55.95% # Class of executed instruction
system.cpu.op_class::IntDiv                     35934      0.02%     55.97% # Class of executed instruction
system.cpu.op_class::FloatAdd                 7424559      4.70%     60.66% # Class of executed instruction
system.cpu.op_class::FloatCmp                       0      0.00%     60.66% # Class of executed instruction
system.cpu.op_class::FloatCvt                    1104      0.00%     60.66% # Class of executed instruction
system.cpu.op_class::FloatMult                      0      0.00%     60.66% # Class of executed instruction
system.cpu.op_class::FloatMultAcc                   0      0.00%     60.66% # Class of executed instruction
system.cpu.op_class::FloatDiv                       0      0.00%     60.66% # Class of executed instruction
system.cpu.op_class::FloatMisc                      0      0.00%     60.66% # Class of executed instruction
system.cpu.op_class::FloatSqrt                      0      0.00%     60.66% # Class of executed instruction
system.cpu.op_class::SimdAdd                     6594      0.00%     60.67% # Class of executed instruction
system.cpu.op_class::SimdAddAcc                     0      0.00%     60.67% # Class of executed instruction
system.cpu.op_class::SimdAlu                  2217297      1.40%     62.07% # Class of executed instruction
system.cpu.op_class::SimdCmp                        0      0.00%     62.07% # Class of executed instruction
system.cpu.op_class::SimdCvt                    13550      0.01%     62.08% # Class of executed instruction
system.cpu.op_class::SimdMisc                 1026602      0.65%     62.73% # Class of executed instruction
system.cpu.op_class::SimdMult                       0      0.00%     62.73% # Class of executed instruction
system.cpu.op_class::SimdMultAcc                    0      0.00%     62.73% # Class of executed instruction
system.cpu.op_class::SimdShift                    341      0.00%     62.73% # Class of executed instruction
system.cpu.op_class::SimdShiftAcc                   0      0.00%     62.73% # Class of executed instruction
system.cpu.op_class::SimdDiv                        0      0.00%     62.73% # Class of executed instruction
system.cpu.op_class::SimdSqrt                       0      0.00%     62.73% # Class of executed instruction
system.cpu.op_class::SimdFloatAdd             3435965      2.17%     64.90% # Class of executed instruction
system.cpu.op_class::SimdFloatAlu                   0      0.00%     64.90% # Class of executed instruction
system.cpu.op_class::SimdFloatCmp                   0      0.00%     64.90% # Class of executed instruction
system.cpu.op_class::SimdFloatCvt              516159      0.33%     65.23% # Class of executed instruction
system.cpu.op_class::SimdFloatDiv              103976      0.07%     65.30% # Class of executed instruction
system.cpu.op_class::SimdFloatMisc                  0      0.00%     65.30% # Class of executed instruction
system.cpu.op_class::SimdFloatMult            3955815      2.50%     67.80% # Class of executed instruction
system.cpu.op_class::SimdFloatMultAcc               0      0.00%     67.80% # Class of executed instruction
system.cpu.op_class::SimdFloatSqrt                256      0.00%     67.80% # Class of executed instruction
system.cpu.op_class::SimdReduceAdd                  0      0.00%     67.80% # Class of executed instruction
system.cpu.op_class::SimdReduceAlu                  0      0.00%     67.80% # Class of executed instruction
system.cpu.op_class::SimdReduceCmp                  0      0.00%     67.80% # Class of executed instruction
system.cpu.op_class::SimdFloatReduceAdd             0      0.00%     67.80% # Class of executed instruction
system.cpu.op_class::SimdFloatReduceCmp             0      0.00%     67.80% # Class of executed instruction
system.cpu.op_class::SimdAes                        0      0.00%     67.80% # Class of executed instruction
system.cpu.op_class::SimdAesMix                     0      0.00%     67.80% # Class of executed instruction
system.cpu.op_class::SimdSha1Hash                   0      0.00%     67.80% # Class of executed instruction
system.cpu.op_class::SimdSha1Hash2                  0      0.00%     67.80% # Class of executed instruction
system.cpu.op_class::SimdSha256Hash                 0      0.00%     67.80% # Class of executed instruction
system.cpu.op_class::SimdSha256Hash2                0      0.00%     67.80% # Class of executed instruction
system.cpu.op_class::SimdShaSigma2                  0      0.00%     67.80% # Class of executed instruction
system.cpu.op_class::SimdShaSigma3                  0      0.00%     67.80% # Class of executed instruction
system.cpu.op_class::SimdPredAlu                    0      0.00%     67.80% # Class of executed instruction
system.cpu.op_class::MemRead                 33643170     21.28%     89.08% # Class of executed instruction
system.cpu.op_class::MemWrite                 4944921      3.13%     92.20% # Class of executed instruction
system.cpu.op_class::FloatMemRead             9307225      5.89%     98.09% # Class of executed instruction
system.cpu.op_class::FloatMemWrite            3019259      1.91%    100.00% # Class of executed instruction
system.cpu.op_class::IprAccess                      0      0.00%    100.00% # Class of executed instruction
system.cpu.op_class::InstPrefetch                   0      0.00%    100.00% # Class of executed instruction
system.cpu.op_class::total                  158105917                       # Class of executed instruction
system.cpu.workload.numSyscalls                    68                       # Number of system calls
system.membus.snoop_filter.hit_multi_requests            0                       # Number of requests hitting in the snoop filter with multiple (>1) holders of the requested data.
system.membus.snoop_filter.hit_multi_snoops            0                       # Number of snoops hitting in the snoop filter with multiple (>1) holders of the requested data.
system.membus.snoop_filter.hit_single_requests         4809                       # Number of requests hitting in the snoop filter with a single holder of the requested data.
system.membus.snoop_filter.hit_single_snoops            0                       # Number of snoops hitting in the snoop filter with a single holder of the requested data.
system.membus.snoop_filter.tot_requests         27258                       # Total number of requests made to the snoop filter.
system.membus.snoop_filter.tot_snoops               0                       # Total number of snoops made to the snoop filter.
system.tol2bus.snoop_filter.hit_multi_requests            0                       # Number of requests hitting in the snoop filter with multiple (>1) holders of the requested data.
system.tol2bus.snoop_filter.hit_multi_snoops            0                       # Number of snoops hitting in the snoop filter with multiple (>1) holders of the requested data.
system.tol2bus.snoop_filter.hit_single_requests         5676                       # Number of requests hitting in the snoop filter with a single holder of the requested data.
system.tol2bus.snoop_filter.hit_single_snoops        19081                       # Number of snoops hitting in the snoop filter with a single holder of the requested data.
system.tol2bus.snoop_filter.tot_requests        28310                       # Total number of requests made to the snoop filter.
system.tol2bus.snoop_filter.tot_snoops          19081                       # Total number of snoops made to the snoop filter.
system.clk_domain.clock                          1000                       # Clock period in ticks
system.cpu.dcache.demand_hits::.cpu.data     50895004                       # number of demand (read+write) hits
system.cpu.dcache.demand_hits::total         50895004                       # number of demand (read+write) hits
system.cpu.dcache.overall_hits::.cpu.data     50895004                       # number of overall hits
system.cpu.dcache.overall_hits::total        50895004                       # number of overall hits
system.cpu.dcache.demand_misses::.cpu.data        19621                       # number of demand (read+write) misses
system.cpu.dcache.demand_misses::total          19621                       # number of demand (read+write) misses
system.cpu.dcache.overall_misses::.cpu.data        19621                       # number of overall misses
system.cpu.dcache.overall_misses::total         19621                       # number of overall misses
system.cpu.dcache.demand_miss_latency::.cpu.data   1594700000                       # number of demand (read+write) miss cycles
system.cpu.dcache.demand_miss_latency::total   1594700000                       # number of demand (read+write) miss cycles
system.cpu.dcache.overall_miss_latency::.cpu.data   1594700000                       # number of overall miss cycles
system.cpu.dcache.overall_miss_latency::total   1594700000                       # number of overall miss cycles
system.cpu.dcache.demand_accesses::.cpu.data     50914625                       # number of demand (read+write) accesses
system.cpu.dcache.demand_accesses::total     50914625                       # number of demand (read+write) accesses
system.cpu.dcache.overall_accesses::.cpu.data     50914625                       # number of overall (read+write) accesses
system.cpu.dcache.overall_accesses::total     50914625                       # number of overall (read+write) accesses
system.cpu.dcache.demand_miss_rate::.cpu.data     0.000385                       # miss rate for demand accesses
system.cpu.dcache.demand_miss_rate::total     0.000385                       # miss rate for demand accesses
system.cpu.dcache.overall_miss_rate::.cpu.data     0.000385                       # miss rate for overall accesses
system.cpu.dcache.overall_miss_rate::total     0.000385                       # miss rate for overall accesses
system.cpu.dcache.demand_avg_miss_latency::.cpu.data 81275.164365                       # average overall miss latency
system.cpu.dcache.demand_avg_miss_latency::total 81275.164365                       # average overall miss latency
system.cpu.dcache.overall_avg_miss_latency::.cpu.data 81275.164365                       # average overall miss latency
system.cpu.dcache.overall_avg_miss_latency::total 81275.164365                       # average overall miss latency
system.cpu.dcache.blocked_cycles::no_mshrs            0                       # number of cycles access was blocked
system.cpu.dcache.blocked_cycles::no_targets            0                       # number of cycles access was blocked
system.cpu.dcache.blocked::no_mshrs                 0                       # number of cycles access was blocked
system.cpu.dcache.blocked::no_targets               0                       # number of cycles access was blocked
system.cpu.dcache.avg_blocked_cycles::no_mshrs          nan                       # average number of cycles each access was blocked
system.cpu.dcache.avg_blocked_cycles::no_targets          nan                       # average number of cycles each access was blocked
system.cpu.dcache.writebacks::.writebacks         1462                       # number of writebacks
system.cpu.dcache.writebacks::total              1462                       # number of writebacks
system.cpu.dcache.demand_mshr_misses::.cpu.data        19621                       # number of demand (read+write) MSHR misses
system.cpu.dcache.demand_mshr_misses::total        19621                       # number of demand (read+write) MSHR misses
system.cpu.dcache.overall_mshr_misses::.cpu.data        19621                       # number of overall MSHR misses
system.cpu.dcache.overall_mshr_misses::total        19621                       # number of overall MSHR misses
system.cpu.dcache.demand_mshr_miss_latency::.cpu.data   1575079000                       # number of demand (read+write) MSHR miss cycles
system.cpu.dcache.demand_mshr_miss_latency::total   1575079000                       # number of demand (read+write) MSHR miss cycles
system.cpu.dcache.overall_mshr_miss_latency::.cpu.data   1575079000                       # number of overall MSHR miss cycles
system.cpu.dcache.overall_mshr_miss_latency::total   1575079000                       # number of overall MSHR miss cycles
system.cpu.dcache.demand_mshr_miss_rate::.cpu.data     0.000385                       # mshr miss rate for demand accesses
system.cpu.dcache.demand_mshr_miss_rate::total     0.000385                       # mshr miss rate for demand accesses
system.cpu.dcache.overall_mshr_miss_rate::.cpu.data     0.000385                       # mshr miss rate for overall accesses
system.cpu.dcache.overall_mshr_miss_rate::total     0.000385                       # mshr miss rate for overall accesses
system.cpu.dcache.demand_avg_mshr_miss_latency::.cpu.data 80275.164365                       # average overall mshr miss latency
system.cpu.dcache.demand_avg_mshr_miss_latency::total 80275.164365                       # average overall mshr miss latency
system.cpu.dcache.overall_avg_mshr_miss_latency::.cpu.data 80275.164365                       # average overall mshr miss latency
system.cpu.dcache.overall_avg_mshr_miss_latency::total 80275.164365                       # average overall mshr miss latency
system.cpu.dcache.replacements                   5175                       # number of replacements
system.cpu.dcache.ReadReq_hits::.cpu.data     42935007                       # number of ReadReq hits
system.cpu.dcache.ReadReq_hits::total        42935007                       # number of ReadReq hits
system.cpu.dcache.ReadReq_misses::.cpu.data        15466                       # number of ReadReq misses
system.cpu.dcache.ReadReq_misses::total         15466                       # number of ReadReq misses
system.cpu.dcache.ReadReq_miss_latency::.cpu.data   1268186500                       # number of ReadReq miss cycles
system.cpu.dcache.ReadReq_miss_latency::total   1268186500                       # number of ReadReq miss cycles
system.cpu.dcache.ReadReq_accesses::.cpu.data     42950473                       # number of ReadReq accesses(hits+misses)
system.cpu.dcache.ReadReq_accesses::total     42950473                       # number of ReadReq accesses(hits+misses)
system.cpu.dcache.ReadReq_miss_rate::.cpu.data     0.000360                       # miss rate for ReadReq accesses
system.cpu.dcache.ReadReq_miss_rate::total     0.000360                       # miss rate for ReadReq accesses
system.cpu.dcache.ReadReq_avg_miss_latency::.cpu.data 81998.351222                       # average ReadReq miss latency
system.cpu.dcache.ReadReq_avg_miss_latency::total 81998.351222                       # average ReadReq miss latency
system.cpu.dcache.ReadReq_mshr_misses::.cpu.data        15466                       # number of ReadReq MSHR misses
system.cpu.dcache.ReadReq_mshr_misses::total        15466                       # number of ReadReq MSHR misses
system.cpu.dcache.ReadReq_mshr_miss_latency::.cpu.data   1252720500                       # number of ReadReq MSHR miss cycles
system.cpu.dcache.ReadReq_mshr_miss_latency::total   1252720500                       # number of ReadReq MSHR miss cycles
system.cpu.dcache.ReadReq_mshr_miss_rate::.cpu.data     0.000360                       # mshr miss rate for ReadReq accesses
system.cpu.dcache.ReadReq_mshr_miss_rate::total     0.000360                       # mshr miss rate for ReadReq accesses
system.cpu.dcache.ReadReq_avg_mshr_miss_latency::.cpu.data 80998.351222                       # average ReadReq mshr miss latency
system.cpu.dcache.ReadReq_avg_mshr_miss_latency::total 80998.351222                       # average ReadReq mshr miss latency
system.cpu.dcache.WriteReq_hits::.cpu.data      7959997                       # number of WriteReq hits
system.cpu.dcache.WriteReq_hits::total        7959997                       # number of WriteReq hits
system.cpu.dcache.WriteReq_misses::.cpu.data         4155                       # number of WriteReq misses
system.cpu.dcache.WriteReq_misses::total         4155                       # number of WriteReq misses
system.cpu.dcache.WriteReq_miss_latency::.cpu.data    326513500                       # number of WriteReq miss cycles
system.cpu.dcache.WriteReq_miss_latency::total    326513500                       # number of WriteReq miss cycles
system.cpu.dcache.WriteReq_accesses::.cpu.data      7964152                       # number of WriteReq accesses(hits+misses)
system.cpu.dcache.WriteReq_accesses::total      7964152                       # number of WriteReq accesses(hits+misses)
system.cpu.dcache.WriteReq_miss_rate::.cpu.data     0.000522                       # miss rate for WriteReq accesses
system.cpu.dcache.WriteReq_miss_rate::total     0.000522                       # miss rate for WriteReq accesses
system.cpu.dcache.WriteReq_avg_miss_latency::.cpu.data 78583.273165                       # average WriteReq miss latency
system.cpu.dcache.WriteReq_avg_miss_latency::total 78583.273165                       # average WriteReq miss latency
system.cpu.dcache.WriteReq_mshr_misses::.cpu.data         4155                       # number of WriteReq MSHR misses
system.cpu.dcache.WriteReq_mshr_misses::total         4155                       # number of WriteReq MSHR misses
system.cpu.dcache.WriteReq_mshr_miss_latency::.cpu.data    322358500                       # number of WriteReq MSHR miss cycles
system.cpu.dcache.WriteReq_mshr_miss_latency::total    322358500                       # number of WriteReq MSHR miss cycles
system.cpu.dcache.WriteReq_mshr_miss_rate::.cpu.data     0.000522                       # mshr miss rate for WriteReq accesses
system.cpu.dcache.WriteReq_mshr_miss_rate::total     0.000522                       # mshr miss rate for WriteReq accesses
system.cpu.dcache.WriteReq_avg_mshr_miss_latency::.cpu.data 77583.273165                       # average WriteReq mshr miss latency
system.cpu.dcache.WriteReq_avg_mshr_miss_latency::total 77583.273165                       # average WriteReq mshr miss latency
system.cpu.dcache.power_state.pwrStateResidencyTicks::UNDEFINED 187556781500                       # Cumulative time (in ticks) in various power states
system.cpu.dcache.tags.tagsinuse         14284.132247                       # Cycle average of tags in use
system.cpu.dcache.tags.total_refs            50914625                       # Total number of references to valid blocks.
system.cpu.dcache.tags.sampled_refs             19621                       # Sample count of references to valid blocks.
system.cpu.dcache.tags.avg_refs           2594.904694                       # Average number of references to valid blocks.
system.cpu.dcache.tags.warmup_cycle            174500                       # Cycle when the warmup percentage was hit.
system.cpu.dcache.tags.occ_blocks::.cpu.data 14284.132247                       # Average occupied blocks per requestor
system.cpu.dcache.tags.occ_percent::.cpu.data     0.871834                       # Average percentage of cache occupancy
system.cpu.dcache.tags.occ_percent::total     0.871834                       # Average percentage of cache occupancy
system.cpu.dcache.tags.occ_task_id_blocks::1024        14446                       # Occupied blocks per task id
system.cpu.dcache.tags.age_task_id_blocks_1024::4        14446                       # Occupied blocks per task id
system.cpu.dcache.tags.occ_task_id_percent::1024     0.881714                       # Percentage of cache occupancy per task id
system.cpu.dcache.tags.tag_accesses         101848871                       # Number of tag accesses
system.cpu.dcache.tags.data_accesses        101848871                       # Number of data accesses
system.cpu.dcache.tags.power_state.pwrStateResidencyTicks::UNDEFINED 187556781500                       # Cumulative time (in ticks) in various power states
system.cpu.dtb.rdAccesses                    42950693                       # TLB accesses on read requests
system.cpu.dtb.wrAccesses                     7964190                       # TLB accesses on write requests
system.cpu.dtb.rdMisses                          1293                       # TLB misses on read requests
system.cpu.dtb.wrMisses                           115                       # TLB misses on write requests
system.cpu.dtb.walker.power_state.pwrStateResidencyTicks::UNDEFINED 187556781500                       # Cumulative time (in ticks) in various power states
system.cpu.dtb_walker_cache.blocked_cycles::no_mshrs            0                       # number of cycles access was blocked
system.cpu.dtb_walker_cache.blocked_cycles::no_targets            0                       # number of cycles access was blocked
system.cpu.dtb_walker_cache.blocked::no_mshrs            0                       # number of cycles access was blocked
system.cpu.dtb_walker_cache.blocked::no_targets            0                       # number of cycles access was blocked
system.cpu.dtb_walker_cache.avg_blocked_cycles::no_mshrs          nan                       # average number of cycles each access was blocked
system.cpu.dtb_walker_cache.avg_blocked_cycles::no_targets          nan                       # average number of cycles each access was blocked
system.cpu.dtb_walker_cache.replacements            0                       # number of replacements
system.cpu.dtb_walker_cache.power_state.pwrStateResidencyTicks::UNDEFINED 187556781500                       # Cumulative time (in ticks) in various power states
system.cpu.dtb_walker_cache.tags.tagsinuse            0                       # Cycle average of tags in use
system.cpu.dtb_walker_cache.tags.total_refs            0                       # Total number of references to valid blocks.
system.cpu.dtb_walker_cache.tags.sampled_refs            0                       # Sample count of references to valid blocks.
system.cpu.dtb_walker_cache.tags.avg_refs          nan                       # Average number of references to valid blocks.
system.cpu.dtb_walker_cache.tags.warmup_cycle            0                       # Cycle when the warmup percentage was hit.
system.cpu.dtb_walker_cache.tags.tag_accesses            0                       # Number of tag accesses
system.cpu.dtb_walker_cache.tags.data_accesses            0                       # Number of data accesses
system.cpu.dtb_walker_cache.tags.power_state.pwrStateResidencyTicks::UNDEFINED 187556781500                       # Cumulative time (in ticks) in various power states
system.cpu.icache.demand_hits::.cpu.inst    134834550                       # number of demand (read+write) hits
system.cpu.icache.demand_hits::total        134834550                       # number of demand (read+write) hits
system.cpu.icache.overall_hits::.cpu.inst    134834550                       # number of overall hits
system.cpu.icache.overall_hits::total       134834550                       # number of overall hits
system.cpu.icache.demand_misses::.cpu.inst         3013                       # number of demand (read+write) misses
system.cpu.icache.demand_misses::total           3013                       # number of demand (read+write) misses
system.cpu.icache.overall_misses::.cpu.inst         3013                       # number of overall misses
system.cpu.icache.overall_misses::total          3013                       # number of overall misses
system.cpu.icache.demand_miss_latency::.cpu.inst    233452500                       # number of demand (read+write) miss cycles
system.cpu.icache.demand_miss_latency::total    233452500                       # number of demand (read+write) miss cycles
system.cpu.icache.overall_miss_latency::.cpu.inst    233452500                       # number of overall miss cycles
system.cpu.icache.overall_miss_latency::total    233452500                       # number of overall miss cycles
system.cpu.icache.demand_accesses::.cpu.inst    134837563                       # number of demand (read+write) accesses
system.cpu.icache.demand_accesses::total    134837563                       # number of demand (read+write) accesses
system.cpu.icache.overall_accesses::.cpu.inst    134837563                       # number of overall (read+write) accesses
system.cpu.icache.overall_accesses::total    134837563                       # number of overall (read+write) accesses
system.cpu.icache.demand_miss_rate::.cpu.inst     0.000022                       # miss rate for demand accesses
system.cpu.icache.demand_miss_rate::total     0.000022                       # miss rate for demand accesses
system.cpu.icache.overall_miss_rate::.cpu.inst     0.000022                       # miss rate for overall accesses
system.cpu.icache.overall_miss_rate::total     0.000022                       # miss rate for overall accesses
system.cpu.icache.demand_avg_miss_latency::.cpu.inst 77481.745768                       # average overall miss latency
system.cpu.icache.demand_avg_miss_latency::total 77481.745768                       # average overall miss latency
system.cpu.icache.overall_avg_miss_latency::.cpu.inst 77481.745768                       # average overall miss latency
system.cpu.icache.overall_avg_miss_latency::total 77481.745768                       # average overall miss latency
system.cpu.icache.blocked_cycles::no_mshrs            0                       # number of cycles access was blocked
system.cpu.icache.blocked_cycles::no_targets            0                       # number of cycles access was blocked
system.cpu.icache.blocked::no_mshrs                 0                       # number of cycles access was blocked
system.cpu.icache.blocked::no_targets               0                       # number of cycles access was blocked
system.cpu.icache.avg_blocked_cycles::no_mshrs          nan                       # average number of cycles each access was blocked
system.cpu.icache.avg_blocked_cycles::no_targets          nan                       # average number of cycles each access was blocked
system.cpu.icache.writebacks::.writebacks          501                       # number of writebacks
system.cpu.icache.writebacks::total               501                       # number of writebacks
system.cpu.icache.demand_mshr_misses::.cpu.inst         3013                       # number of demand (read+write) MSHR misses
system.cpu.icache.demand_mshr_misses::total         3013                       # number of demand (read+write) MSHR misses
system.cpu.icache.overall_mshr_misses::.cpu.inst         3013                       # number of overall MSHR misses
system.cpu.icache.overall_mshr_misses::total         3013                       # number of overall MSHR misses
system.cpu.icache.demand_mshr_miss_latency::.cpu.inst    230439500                       # number of demand (read+write) MSHR miss cycles
system.cpu.icache.demand_mshr_miss_latency::total    230439500                       # number of demand (read+write) MSHR miss cycles
system.cpu.icache.overall_mshr_miss_latency::.cpu.inst    230439500                       # number of overall MSHR miss cycles
system.cpu.icache.overall_mshr_miss_latency::total    230439500                       # number of overall MSHR miss cycles
system.cpu.icache.demand_mshr_miss_rate::.cpu.inst     0.000022                       # mshr miss rate for demand accesses
system.cpu.icache.demand_mshr_miss_rate::total     0.000022                       # mshr miss rate for demand accesses
system.cpu.icache.overall_mshr_miss_rate::.cpu.inst     0.000022                       # mshr miss rate for overall accesses
system.cpu.icache.overall_mshr_miss_rate::total     0.000022                       # mshr miss rate for overall accesses
system.cpu.icache.demand_avg_mshr_miss_latency::.cpu.inst 76481.745768                       # average overall mshr miss latency
system.cpu.icache.demand_avg_mshr_miss_latency::total 76481.745768                       # average overall mshr miss latency
system.cpu.icache.overall_avg_mshr_miss_latency::.cpu.inst 76481.745768                       # average overall mshr miss latency
system.cpu.icache.overall_avg_mshr_miss_latency::total 76481.745768                       # average overall mshr miss latency
system.cpu.icache.replacements                    501                       # number of replacements
system.cpu.icache.ReadReq_hits::.cpu.inst    134834550                       # number of ReadReq hits
system.cpu.icache.ReadReq_hits::total       134834550                       # number of ReadReq hits
system.cpu.icache.ReadReq_misses::.cpu.inst         3013                       # number of ReadReq misses
system.cpu.icache.ReadReq_misses::total          3013                       # number of ReadReq misses
system.cpu.icache.ReadReq_miss_latency::.cpu.inst    233452500                       # number of ReadReq miss cycles
system.cpu.icache.ReadReq_miss_latency::total    233452500                       # number of ReadReq miss cycles
system.cpu.icache.ReadReq_accesses::.cpu.inst    134837563                       # number of ReadReq accesses(hits+misses)
system.cpu.icache.ReadReq_accesses::total    134837563                       # number of ReadReq accesses(hits+misses)
system.cpu.icache.ReadReq_miss_rate::.cpu.inst     0.000022                       # miss rate for ReadReq accesses
system.cpu.icache.ReadReq_miss_rate::total     0.000022                       # miss rate for ReadReq accesses
system.cpu.icache.ReadReq_avg_miss_latency::.cpu.inst 77481.745768                       # average ReadReq miss latency
system.cpu.icache.ReadReq_avg_miss_latency::total 77481.745768                       # average ReadReq miss latency
system.cpu.icache.ReadReq_mshr_misses::.cpu.inst         3013                       # number of ReadReq MSHR misses
system.cpu.icache.ReadReq_mshr_misses::total         3013                       # number of ReadReq MSHR misses
system.cpu.icache.ReadReq_mshr_miss_latency::.cpu.inst    230439500                       # number of ReadReq MSHR miss cycles
system.cpu.icache.ReadReq_mshr_miss_latency::total    230439500                       # number of ReadReq MSHR miss cycles
system.cpu.icache.ReadReq_mshr_miss_rate::.cpu.inst     0.000022                       # mshr miss rate for ReadReq accesses
system.cpu.icache.ReadReq_mshr_miss_rate::total     0.000022                       # mshr miss rate for ReadReq accesses
system.cpu.icache.ReadReq_avg_mshr_miss_latency::.cpu.inst 76481.745768                       # average ReadReq mshr miss latency
system.cpu.icache.ReadReq_avg_mshr_miss_latency::total 76481.745768                       # average ReadReq mshr miss latency
system.cpu.icache.power_state.pwrStateResidencyTicks::UNDEFINED 187556781500                       # Cumulative time (in ticks) in various power states
system.cpu.icache.tags.tagsinuse          2476.244303                       # Cycle average of tags in use
system.cpu.icache.tags.total_refs           134837563                       # Total number of references to valid blocks.
system.cpu.icache.tags.sampled_refs              3013                       # Sample count of references to valid blocks.
system.cpu.icache.tags.avg_refs          44751.929306                       # Average number of references to valid blocks.
system.cpu.icache.tags.warmup_cycle             87500                       # Cycle when the warmup percentage was hit.
system.cpu.icache.tags.occ_blocks::.cpu.inst  2476.244303                       # Average occupied blocks per requestor
system.cpu.icache.tags.occ_percent::.cpu.inst     0.604552                       # Average percentage of cache occupancy
system.cpu.icache.tags.occ_percent::total     0.604552                       # Average percentage of cache occupancy
system.cpu.icache.tags.occ_task_id_blocks::1024         2512                       # Occupied blocks per task id
system.cpu.icache.tags.age_task_id_blocks_1024::4         2512                       # Occupied blocks per task id
system.cpu.icache.tags.occ_task_id_percent::1024     0.613281                       # Percentage of cache occupancy per task id
system.cpu.icache.tags.tag_accesses         269678139                       # Number of tag accesses
system.cpu.icache.tags.data_accesses        269678139                       # Number of data accesses
system.cpu.icache.tags.power_state.pwrStateResidencyTicks::UNDEFINED 187556781500                       # Cumulative time (in ticks) in various power states
system.cpu.interrupts.clk_domain.clock           8000                       # Clock period in ticks
system.cpu.itb.rdAccesses                           0                       # TLB accesses on read requests
system.cpu.itb.wrAccesses                   134837674                       # TLB accesses on write requests
system.cpu.itb.rdMisses                             0                       # TLB misses on read requests
system.cpu.itb.wrMisses                           376                       # TLB misses on write requests
system.cpu.itb.walker.power_state.pwrStateResidencyTicks::UNDEFINED 187556781500                       # Cumulative time (in ticks) in various power states
system.cpu.itb_walker_cache.blocked_cycles::no_mshrs            0                       # number of cycles access was blocked
system.cpu.itb_walker_cache.blocked_cycles::no_targets            0                       # number of cycles access was blocked
system.cpu.itb_walker_cache.blocked::no_mshrs            0                       # number of cycles access was blocked
system.cpu.itb_walker_cache.blocked::no_targets            0                       # number of cycles access was blocked
system.cpu.itb_walker_cache.avg_blocked_cycles::no_mshrs          nan                       # average number of cycles each access was blocked
system.cpu.itb_walker_cache.avg_blocked_cycles::no_targets          nan                       # average number of cycles each access was blocked
system.cpu.itb_walker_cache.replacements            0                       # number of replacements
system.cpu.itb_walker_cache.power_state.pwrStateResidencyTicks::UNDEFINED 187556781500                       # Cumulative time (in ticks) in various power states
system.cpu.itb_walker_cache.tags.tagsinuse            0                       # Cycle average of tags in use
system.cpu.itb_walker_cache.tags.total_refs            0                       # Total number of references to valid blocks.
system.cpu.itb_walker_cache.tags.sampled_refs            0                       # Sample count of references to valid blocks.
system.cpu.itb_walker_cache.tags.avg_refs          nan                       # Average number of references to valid blocks.
system.cpu.itb_walker_cache.tags.warmup_cycle            0                       # Cycle when the warmup percentage was hit.
system.cpu.itb_walker_cache.tags.tag_accesses            0                       # Number of tag accesses
system.cpu.itb_walker_cache.tags.data_accesses            0                       # Number of data accesses
system.cpu.itb_walker_cache.tags.power_state.pwrStateResidencyTicks::UNDEFINED 187556781500                       # Cumulative time (in ticks) in various power states
system.cpu.power_state.pwrStateResidencyTicks::ON 187556781500                       # Cumulative time (in ticks) in various power states
system.cpu.thread_0.numInsts                        0                       # Number of Instructions committed
system.cpu.thread_0.numOps                          0                       # Number of Ops committed
system.cpu.thread_0.numMemRefs                      0                       # Number of Memory References
system.cpu_clk_domain.clock                       500                       # Clock period in ticks
system.cpu_voltage_domain.voltage                   1                       # Voltage in Volts
system.l2.demand_hits::.cpu.inst                    9                       # number of demand (read+write) hits
system.l2.demand_hits::.cpu.data                  176                       # number of demand (read+write) hits
system.l2.demand_hits::total                      185                       # number of demand (read+write) hits
system.l2.overall_hits::.cpu.inst                   9                       # number of overall hits
system.l2.overall_hits::.cpu.data                 176                       # number of overall hits
system.l2.overall_hits::total                     185                       # number of overall hits
system.l2.demand_misses::.cpu.inst               3004                       # number of demand (read+write) misses
system.l2.demand_misses::.cpu.data              19445                       # number of demand (read+write) misses
system.l2.demand_misses::total                  22449                       # number of demand (read+write) misses
system.l2.overall_misses::.cpu.inst              3004                       # number of overall misses
system.l2.overall_misses::.cpu.data             19445                       # number of overall misses
system.l2.overall_misses::total                 22449                       # number of overall misses
system.l2.demand_miss_latency::.cpu.inst    225825500                       # number of demand (read+write) miss cycles
system.l2.demand_miss_latency::.cpu.data   1543796500                       # number of demand (read+write) miss cycles
system.l2.demand_miss_latency::total       1769622000                       # number of demand (read+write) miss cycles
system.l2.overall_miss_latency::.cpu.inst    225825500                       # number of overall miss cycles
system.l2.overall_miss_latency::.cpu.data   1543796500                       # number of overall miss cycles
system.l2.overall_miss_latency::total      1769622000                       # number of overall miss cycles
system.l2.demand_accesses::.cpu.inst             3013                       # number of demand (read+write) accesses
system.l2.demand_accesses::.cpu.data            19621                       # number of demand (read+write) accesses
system.l2.demand_accesses::total                22634                       # number of demand (read+write) accesses
system.l2.overall_accesses::.cpu.inst            3013                       # number of overall (read+write) accesses
system.l2.overall_accesses::.cpu.data           19621                       # number of overall (read+write) accesses
system.l2.overall_accesses::total               22634                       # number of overall (read+write) accesses
system.l2.demand_miss_rate::.cpu.inst        0.997013                       # miss rate for demand accesses
system.l2.demand_miss_rate::.cpu.data        0.991030                       # miss rate for demand accesses
system.l2.demand_miss_rate::total            0.991826                       # miss rate for demand accesses
system.l2.overall_miss_rate::.cpu.inst       0.997013                       # miss rate for overall accesses
system.l2.overall_miss_rate::.cpu.data       0.991030                       # miss rate for overall accesses
system.l2.overall_miss_rate::total           0.991826                       # miss rate for overall accesses
system.l2.demand_avg_miss_latency::.cpu.inst 75174.933422                       # average overall miss latency
system.l2.demand_avg_miss_latency::.cpu.data 79392.980201                       # average overall miss latency
system.l2.demand_avg_miss_latency::total 78828.544701                       # average overall miss latency
system.l2.overall_avg_miss_latency::.cpu.inst 75174.933422                       # average overall miss latency
system.l2.overall_avg_miss_latency::.cpu.data 79392.980201                       # average overall miss latency
system.l2.overall_avg_miss_latency::total 78828.544701                       # average overall miss latency
system.l2.blocked_cycles::no_mshrs                  0                       # number of cycles access was blocked
system.l2.blocked_cycles::no_targets                0                       # number of cycles access was blocked
system.l2.blocked::no_mshrs                         0                       # number of cycles access was blocked
system.l2.blocked::no_targets                       0                       # number of cycles access was blocked
system.l2.avg_blocked_cycles::no_mshrs            nan                       # average number of cycles each access was blocked
system.l2.avg_blocked_cycles::no_targets          nan                       # average number of cycles each access was blocked
system.l2.writebacks::.writebacks                 947                       # number of writebacks
system.l2.writebacks::total                       947                       # number of writebacks
system.l2.demand_mshr_misses::.cpu.inst          3004                       # number of demand (read+write) MSHR misses
system.l2.demand_mshr_misses::.cpu.data         19445                       # number of demand (read+write) MSHR misses
system.l2.demand_mshr_misses::total             22449                       # number of demand (read+write) MSHR misses
system.l2.overall_mshr_misses::.cpu.inst         3004                       # number of overall MSHR misses
system.l2.overall_mshr_misses::.cpu.data        19445                       # number of overall MSHR misses
system.l2.overall_mshr_misses::total            22449                       # number of overall MSHR misses
system.l2.demand_mshr_miss_latency::.cpu.inst    195785500                       # number of demand (read+write) MSHR miss cycles
system.l2.demand_mshr_miss_latency::.cpu.data   1349346500                       # number of demand (read+write) MSHR miss cycles
system.l2.demand_mshr_miss_latency::total   1545132000                       # number of demand (read+write) MSHR miss cycles
system.l2.overall_mshr_miss_latency::.cpu.inst    195785500                       # number of overall MSHR miss cycles
system.l2.overall_mshr_miss_latency::.cpu.data   1349346500                       # number of overall MSHR miss cycles
system.l2.overall_mshr_miss_latency::total   1545132000                       # number of overall MSHR miss cycles
system.l2.demand_mshr_miss_rate::.cpu.inst     0.997013                       # mshr miss rate for demand accesses
system.l2.demand_mshr_miss_rate::.cpu.data     0.991030                       # mshr miss rate for demand accesses
system.l2.demand_mshr_miss_rate::total       0.991826                       # mshr miss rate for demand accesses
system.l2.overall_mshr_miss_rate::.cpu.inst     0.997013                       # mshr miss rate for overall accesses
system.l2.overall_mshr_miss_rate::.cpu.data     0.991030                       # mshr miss rate for overall accesses
system.l2.overall_mshr_miss_rate::total      0.991826                       # mshr miss rate for overall accesses
system.l2.demand_avg_mshr_miss_latency::.cpu.inst 65174.933422                       # average overall mshr miss latency
system.l2.demand_avg_mshr_miss_latency::.cpu.data 69392.980201                       # average overall mshr miss latency
system.l2.demand_avg_mshr_miss_latency::total 68828.544701                       # average overall mshr miss latency
system.l2.overall_avg_mshr_miss_latency::.cpu.inst 65174.933422                       # average overall mshr miss latency
system.l2.overall_avg_mshr_miss_latency::.cpu.data 69392.980201                       # average overall mshr miss latency
system.l2.overall_avg_mshr_miss_latency::total 68828.544701                       # average overall mshr miss latency
system.l2.replacements                          20277                       # number of replacements
system.l2.WritebackDirty_hits::.writebacks         1462                       # number of WritebackDirty hits
system.l2.WritebackDirty_hits::total             1462                       # number of WritebackDirty hits
system.l2.WritebackDirty_accesses::.writebacks         1462                       # number of WritebackDirty accesses(hits+misses)
system.l2.WritebackDirty_accesses::total         1462                       # number of WritebackDirty accesses(hits+misses)
system.l2.WritebackClean_hits::.writebacks          501                       # number of WritebackClean hits
system.l2.WritebackClean_hits::total              501                       # number of WritebackClean hits
system.l2.WritebackClean_accesses::.writebacks          501                       # number of WritebackClean accesses(hits+misses)
system.l2.WritebackClean_accesses::total          501                       # number of WritebackClean accesses(hits+misses)
system.l2.CleanEvict_mshr_misses::.writebacks         3613                       # number of CleanEvict MSHR misses
system.l2.CleanEvict_mshr_misses::total          3613                       # number of CleanEvict MSHR misses
system.l2.CleanEvict_mshr_miss_rate::.writebacks          inf                       # mshr miss rate for CleanEvict accesses
system.l2.CleanEvict_mshr_miss_rate::total          inf                       # mshr miss rate for CleanEvict accesses
system.l2.ReadExReq_hits::.cpu.data               106                       # number of ReadExReq hits
system.l2.ReadExReq_hits::total                   106                       # number of ReadExReq hits
system.l2.ReadExReq_misses::.cpu.data            4049                       # number of ReadExReq misses
system.l2.ReadExReq_misses::total                4049                       # number of ReadExReq misses
system.l2.ReadExReq_miss_latency::.cpu.data    315013000                       # number of ReadExReq miss cycles
system.l2.ReadExReq_miss_latency::total     315013000                       # number of ReadExReq miss cycles
system.l2.ReadExReq_accesses::.cpu.data          4155                       # number of ReadExReq accesses(hits+misses)
system.l2.ReadExReq_accesses::total              4155                       # number of ReadExReq accesses(hits+misses)
system.l2.ReadExReq_miss_rate::.cpu.data     0.974489                       # miss rate for ReadExReq accesses
system.l2.ReadExReq_miss_rate::total         0.974489                       # miss rate for ReadExReq accesses
system.l2.ReadExReq_avg_miss_latency::.cpu.data 77800.197580                       # average ReadExReq miss latency
system.l2.ReadExReq_avg_miss_latency::total 77800.197580                       # average ReadExReq miss latency
system.l2.ReadExReq_mshr_misses::.cpu.data         4049                       # number of ReadExReq MSHR misses
system.l2.ReadExReq_mshr_misses::total           4049                       # number of ReadExReq MSHR misses
system.l2.ReadExReq_mshr_miss_latency::.cpu.data    274523000                       # number of ReadExReq MSHR miss cycles
system.l2.ReadExReq_mshr_miss_latency::total    274523000                       # number of ReadExReq MSHR miss cycles
system.l2.ReadExReq_mshr_miss_rate::.cpu.data     0.974489                       # mshr miss rate for ReadExReq accesses
system.l2.ReadExReq_mshr_miss_rate::total     0.974489                       # mshr miss rate for ReadExReq accesses
system.l2.ReadExReq_avg_mshr_miss_latency::.cpu.data 67800.197580                       # average ReadExReq mshr miss latency
system.l2.ReadExReq_avg_mshr_miss_latency::total 67800.197580                       # average ReadExReq mshr miss latency
system.l2.ReadCleanReq_hits::.cpu.inst              9                       # number of ReadCleanReq hits
system.l2.ReadCleanReq_hits::total                  9                       # number of ReadCleanReq hits
system.l2.ReadCleanReq_misses::.cpu.inst         3004                       # number of ReadCleanReq misses
system.l2.ReadCleanReq_misses::total             3004                       # number of ReadCleanReq misses
system.l2.ReadCleanReq_miss_latency::.cpu.inst    225825500                       # number of ReadCleanReq miss cycles
system.l2.ReadCleanReq_miss_latency::total    225825500                       # number of ReadCleanReq miss cycles
system.l2.ReadCleanReq_accesses::.cpu.inst         3013                       # number of ReadCleanReq accesses(hits+misses)
system.l2.ReadCleanReq_accesses::total           3013                       # number of ReadCleanReq accesses(hits+misses)
system.l2.ReadCleanReq_miss_rate::.cpu.inst     0.997013                       # miss rate for ReadCleanReq accesses
system.l2.ReadCleanReq_miss_rate::total      0.997013                       # miss rate for ReadCleanReq accesses
system.l2.ReadCleanReq_avg_miss_latency::.cpu.inst 75174.933422                       # average ReadCleanReq miss latency
system.l2.ReadCleanReq_avg_miss_latency::total 75174.933422                       # average ReadCleanReq miss latency
system.l2.ReadCleanReq_mshr_misses::.cpu.inst         3004                       # number of ReadCleanReq MSHR misses
system.l2.ReadCleanReq_mshr_misses::total         3004                       # number of ReadCleanReq MSHR misses
system.l2.ReadCleanReq_mshr_miss_latency::.cpu.inst    195785500                       # number of ReadCleanReq MSHR miss cycles
system.l2.ReadCleanReq_mshr_miss_latency::total    195785500                       # number of ReadCleanReq MSHR miss cycles
system.l2.ReadCleanReq_mshr_miss_rate::.cpu.inst     0.997013                       # mshr miss rate for ReadCleanReq accesses
system.l2.ReadCleanReq_mshr_miss_rate::total     0.997013                       # mshr miss rate for ReadCleanReq accesses
system.l2.ReadCleanReq_avg_mshr_miss_latency::.cpu.inst 65174.933422                       # average ReadCleanReq mshr miss latency
system.l2.ReadCleanReq_avg_mshr_miss_latency::total 65174.933422                       # average ReadCleanReq mshr miss latency
system.l2.ReadSharedReq_hits::.cpu.data            70                       # number of ReadSharedReq hits
system.l2.ReadSharedReq_hits::total                70                       # number of ReadSharedReq hits
system.l2.ReadSharedReq_misses::.cpu.data        15396                       # number of ReadSharedReq misses
system.l2.ReadSharedReq_misses::total           15396                       # number of ReadSharedReq misses
system.l2.ReadSharedReq_miss_latency::.cpu.data   1228783500                       # number of ReadSharedReq miss cycles
system.l2.ReadSharedReq_miss_latency::total   1228783500                       # number of ReadSharedReq miss cycles
system.l2.ReadSharedReq_accesses::.cpu.data        15466                       # number of ReadSharedReq accesses(hits+misses)
system.l2.ReadSharedReq_accesses::total         15466                       # number of ReadSharedReq accesses(hits+misses)
system.l2.ReadSharedReq_miss_rate::.cpu.data     0.995474                       # miss rate for ReadSharedReq accesses
system.l2.ReadSharedReq_miss_rate::total     0.995474                       # miss rate for ReadSharedReq accesses
system.l2.ReadSharedReq_avg_miss_latency::.cpu.data 79811.866719                       # average ReadSharedReq miss latency
system.l2.ReadSharedReq_avg_miss_latency::total 79811.866719                       # average ReadSharedReq miss latency
system.l2.ReadSharedReq_mshr_misses::.cpu.data        15396                       # number of ReadSharedReq MSHR misses
system.l2.ReadSharedReq_mshr_misses::total        15396                       # number of ReadSharedReq MSHR misses
system.l2.ReadSharedReq_mshr_miss_latency::.cpu.data   1074823500                       # number of ReadSharedReq MSHR miss cycles
system.l2.ReadSharedReq_mshr_miss_latency::total   1074823500                       # number of ReadSharedReq MSHR miss cycles
system.l2.ReadSharedReq_mshr_miss_rate::.cpu.data     0.995474                       # mshr miss rate for ReadSharedReq accesses
system.l2.ReadSharedReq_mshr_miss_rate::total     0.995474                       # mshr miss rate for ReadSharedReq accesses
system.l2.ReadSharedReq_avg_mshr_miss_latency::.cpu.data 69811.866719                       # average ReadSharedReq mshr miss latency
system.l2.ReadSharedReq_avg_mshr_miss_latency::total 69811.866719                       # average ReadSharedReq mshr miss latency
system.l2.power_state.pwrStateResidencyTicks::UNDEFINED 187556781500                       # Cumulative time (in ticks) in various power states
system.l2.tags.tagsinuse                  4088.724204                       # Cycle average of tags in use
system.l2.tags.total_refs                       24697                       # Total number of references to valid blocks.
system.l2.tags.sampled_refs                     24373                       # Sample count of references to valid blocks.
system.l2.tags.avg_refs                      1.013293                       # Average number of references to valid blocks.
system.l2.tags.warmup_cycle                     77000                       # Cycle when the warmup percentage was hit.
system.l2.tags.occ_blocks::.writebacks     667.444160                       # Average occupied blocks per requestor
system.l2.tags.occ_blocks::.cpu.inst       887.064773                       # Average occupied blocks per requestor
system.l2.tags.occ_blocks::.cpu.data      2534.215270                       # Average occupied blocks per requestor
system.l2.tags.occ_percent::.writebacks      0.162950                       # Average percentage of cache occupancy
system.l2.tags.occ_percent::.cpu.inst        0.216569                       # Average percentage of cache occupancy
system.l2.tags.occ_percent::.cpu.data        0.618705                       # Average percentage of cache occupancy
system.l2.tags.occ_percent::total            0.998224                       # Average percentage of cache occupancy
system.l2.tags.occ_task_id_blocks::1024          4096                       # Occupied blocks per task id
system.l2.tags.age_task_id_blocks_1024::4         4096                       # Occupied blocks per task id
system.l2.tags.occ_task_id_percent::1024            1                       # Percentage of cache occupancy per task id
system.l2.tags.tag_accesses                     80993                       # Number of tag accesses
system.l2.tags.data_accesses                    80993                       # Number of data accesses
system.l2.tags.power_state.pwrStateResidencyTicks::UNDEFINED 187556781500                       # Cumulative time (in ticks) in various power states
system.mem_ctrls.avgPriority_.writebacks::samples       768.00                       # Average QoS priority value for accepted requests
system.mem_ctrls.avgPriority_.cpu.inst::samples      3004.00                       # Average QoS priority value for accepted requests
system.mem_ctrls.avgPriority_.cpu.data::samples     19437.00                       # Average QoS priority value for accepted requests
system.mem_ctrls.priorityMinLatency      0.000000018750                       # per QoS priority minimum request to response latency (s)
system.mem_ctrls.priorityMaxLatency      0.002924858500                       # per QoS priority maximum request to response latency (s)
system.mem_ctrls.numReadWriteTurnArounds           44                       # Number of turnarounds from READ to WRITE
system.mem_ctrls.numWriteReadTurnArounds           44                       # Number of turnarounds from WRITE to READ
system.mem_ctrls.numStayReadState               93962                       # Number of times bus staying in READ state
system.mem_ctrls.numStayWriteState                708                       # Number of times bus staying in WRITE state
system.mem_ctrls.readReqs                       22449                       # Number of read requests accepted
system.mem_ctrls.writeReqs                        947                       # Number of write requests accepted
system.mem_ctrls.readBursts                     22449                       # Number of controller read bursts, including those serviced by the write queue
system.mem_ctrls.writeBursts                      947                       # Number of controller write bursts, including those merged in the write queue
system.mem_ctrls.servicedByWrQ                      8                       # Number of controller read bursts serviced by the write queue
system.mem_ctrls.mergedWrBursts                   179                       # Number of controller write bursts merged with an existing one
system.mem_ctrls.neitherReadNorWriteReqs            0                       # Number of requests that are neither read nor write
system.mem_ctrls.avgRdQLen                       1.00                       # Average read queue length when enqueuing
system.mem_ctrls.avgWrQLen                      16.02                       # Average write queue length when enqueuing
system.mem_ctrls.numRdRetry                         0                       # Number of times read queue was full causing retry
system.mem_ctrls.numWrRetry                         0                       # Number of times write queue was full causing retry
system.mem_ctrls.readPktSize::0                     0                       # Read request sizes (log2)
system.mem_ctrls.readPktSize::1                     0                       # Read request sizes (log2)
system.mem_ctrls.readPktSize::2                     0                       # Read request sizes (log2)
system.mem_ctrls.readPktSize::3                     0                       # Read request sizes (log2)
system.mem_ctrls.readPktSize::4                     0                       # Read request sizes (log2)
system.mem_ctrls.readPktSize::5                 22449                       # Read request sizes (log2)
system.mem_ctrls.writePktSize::0                    0                       # Write request sizes (log2)
system.mem_ctrls.writePktSize::1                    0                       # Write request sizes (log2)
system.mem_ctrls.writePktSize::2                    0                       # Write request sizes (log2)
system.mem_ctrls.writePktSize::3                    0                       # Write request sizes (log2)
system.mem_ctrls.writePktSize::4                    0                       # Write request sizes (log2)
system.mem_ctrls.writePktSize::5                  947                       # Write request sizes (log2)
system.mem_ctrls.rdQLenPdf::0                   22435                       # What read queue length does an incoming req see
system.mem_ctrls.rdQLenPdf::1                       6                       # What read queue length does an incoming req see
system.mem_ctrls.rdQLenPdf::2                       0                       # What read queue length does an incoming req see
system.mem_ctrls.rdQLenPdf::3                       0                       # What read queue length does an incoming req see
system.mem_ctrls.rdQLenPdf::4                       0                       # What read queue length does an incoming req see
system.mem_ctrls.rdQLenPdf::5                       0                       # What read queue length does an incoming req see
system.mem_ctrls.rdQLenPdf::6                       0                       # What read queue length does an incoming req see
system.mem_ctrls.rdQLenPdf::7                       0                       # What read queue length does an incoming req see
system.mem_ctrls.rdQLenPdf::8                       0                       # What read queue length does an incoming req see
system.mem_ctrls.rdQLenPdf::9                       0                       # What read queue length does an incoming req see
system.mem_ctrls.rdQLenPdf::10                      0                       # What read queue length does an incoming req see
system.mem_ctrls.rdQLenPdf::11                      0                       # What read queue length does an incoming req see
system.mem_ctrls.rdQLenPdf::12                      0                       # What read queue length does an incoming req see
system.mem_ctrls.rdQLenPdf::13                      0                       # What read queue length does an incoming req see
system.mem_ctrls.rdQLenPdf::14                      0                       # What read queue length does an incoming req see
system.mem_ctrls.rdQLenPdf::15                      0                       # What read queue length does an incoming req see
system.mem_ctrls.rdQLenPdf::16                      0                       # What read queue length does an incoming req see
system.mem_ctrls.rdQLenPdf::17                      0                       # What read queue length does an incoming req see
system.mem_ctrls.rdQLenPdf::18                      0                       # What read queue length does an incoming req see
system.mem_ctrls.rdQLenPdf::19                      0                       # What read queue length does an incoming req see
system.mem_ctrls.rdQLenPdf::20                      0                       # What read queue length does an incoming req see
system.mem_ctrls.rdQLenPdf::21                      0                       # What read queue length does an incoming req see
system.mem_ctrls.rdQLenPdf::22                      0                       # What read queue length does an incoming req see
system.mem_ctrls.rdQLenPdf::23                      0                       # What read queue length does an incoming req see
system.mem_ctrls.rdQLenPdf::24                      0                       # What read queue length does an incoming req see
system.mem_ctrls.rdQLenPdf::25                      0                       # What read queue length does an incoming req see
system.mem_ctrls.rdQLenPdf::26                      0                       # What read queue length does an incoming req see
system.mem_ctrls.rdQLenPdf::27                      0                       # What read queue length does an incoming req see
system.mem_ctrls.rdQLenPdf::28                      0                       # What read queue length does an incoming req see
system.mem_ctrls.rdQLenPdf::29                      0                       # What read queue length does an incoming req see
system.mem_ctrls.rdQLenPdf::30                      0                       # What read queue length does an incoming req see
system.mem_ctrls.rdQLenPdf::31                      0                       # What read queue length does an incoming req see
system.mem_ctrls.wrQLenPdf::0                       1                       # What write queue length does an incoming req see
system.mem_ctrls.wrQLenPdf::1                       1                       # What write queue length does an incoming req see
system.mem_ctrls.wrQLenPdf::2                       1                       # What write queue length does an incoming req see
system.mem_ctrls.wrQLenPdf::3                       1                       # What write queue length does an incoming req see
system.mem_ctrls.wrQLenPdf::4                       1                       # What write queue length does an incoming req see
system.mem_ctrls.wrQLenPdf::5                       1                       # What write queue length does an incoming req see
system.mem_ctrls.wrQLenPdf::6                       1                       # What write queue length does an incoming req see
system.mem_ctrls.wrQLenPdf::7                       1                       # What write queue length does an incoming req see
system.mem_ctrls.wrQLenPdf::8                       1                       # What write queue length does an incoming req see
system.mem_ctrls.wrQLenPdf::9                       1                       # What write queue length does an incoming req see
system.mem_ctrls.wrQLenPdf::10                      1                       # What write queue length does an incoming req see
system.mem_ctrls.wrQLenPdf::11                      1                       # What write queue length does an incoming req see
system.mem_ctrls.wrQLenPdf::12                      1                       # What write queue length does an incoming req see
system.mem_ctrls.wrQLenPdf::13                      1                       # What write queue length does an incoming req see
system.mem_ctrls.wrQLenPdf::14                      1                       # What write queue length does an incoming req see
system.mem_ctrls.wrQLenPdf::15                     24                       # What write queue length does an incoming req see
system.mem_ctrls.wrQLenPdf::16                     24                       # What write queue length does an incoming req see
system.mem_ctrls.wrQLenPdf::17                     44                       # What write queue length does an incoming req see
system.mem_ctrls.wrQLenPdf::18                     44                       # What write queue length does an incoming req see
system.mem_ctrls.wrQLenPdf::19                     44                       # What write queue length does an incoming req see
system.mem_ctrls.wrQLenPdf::20                     45                       # What write queue length does an incoming req see
system.mem_ctrls.wrQLenPdf::21                     44                       # What write queue length does an incoming req see
system.mem_ctrls.wrQLenPdf::22                     44                       # What write queue length does an incoming req see
system.mem_ctrls.wrQLenPdf::23                     44                       # What write queue length does an incoming req see
system.mem_ctrls.wrQLenPdf::24                     44                       # What write queue length does an incoming req see
system.mem_ctrls.wrQLenPdf::25                     44                       # What write queue length does an incoming req see
system.mem_ctrls.wrQLenPdf::26                     44                       # What write queue length does an incoming req see
system.mem_ctrls.wrQLenPdf::27                     44                       # What write queue length does an incoming req see
system.mem_ctrls.wrQLenPdf::28                     44                       # What write queue length does an incoming req see
system.mem_ctrls.wrQLenPdf::29                     44                       # What write queue length does an incoming req see
system.mem_ctrls.wrQLenPdf::30                     44                       # What write queue length does an incoming req see
system.mem_ctrls.wrQLenPdf::31                     44                       # What write queue length does an incoming req see
system.mem_ctrls.wrQLenPdf::32                     44                       # What write queue length does an incoming req see
system.mem_ctrls.wrQLenPdf::33                      0                       # What write queue length does an incoming req see
system.mem_ctrls.wrQLenPdf::34                      0                       # What write queue length does an incoming req see
system.mem_ctrls.wrQLenPdf::35                      0                       # What write queue length does an incoming req see
system.mem_ctrls.wrQLenPdf::36                      0                       # What write queue length does an incoming req see
system.mem_ctrls.wrQLenPdf::37                      0                       # What write queue length does an incoming req see
system.mem_ctrls.wrQLenPdf::38                      0                       # What write queue length does an incoming req see
system.mem_ctrls.wrQLenPdf::39                      0                       # What write queue length does an incoming req see
system.mem_ctrls.wrQLenPdf::40                      0                       # What write queue length does an incoming req see
system.mem_ctrls.wrQLenPdf::41                      0                       # What write queue length does an incoming req see
system.mem_ctrls.wrQLenPdf::42                      0                       # What write queue length does an incoming req see
system.mem_ctrls.wrQLenPdf::43                      0                       # What write queue length does an incoming req see
system.mem_ctrls.wrQLenPdf::44                      0                       # What write queue length does an incoming req see
system.mem_ctrls.wrQLenPdf::45                      0                       # What write queue length does an incoming req see
system.mem_ctrls.wrQLenPdf::46                      0                       # What write queue length does an incoming req see
system.mem_ctrls.wrQLenPdf::47                      0                       # What write queue length does an incoming req see
system.mem_ctrls.wrQLenPdf::48                      0                       # What write queue length does an incoming req see
system.mem_ctrls.wrQLenPdf::49                      0                       # What write queue length does an incoming req see
system.mem_ctrls.wrQLenPdf::50                      0                       # What write queue length does an incoming req see
system.mem_ctrls.wrQLenPdf::51                      0                       # What write queue length does an incoming req see
system.mem_ctrls.wrQLenPdf::52                      0                       # What write queue length does an incoming req see
system.mem_ctrls.wrQLenPdf::53                      0                       # What write queue length does an incoming req see
system.mem_ctrls.wrQLenPdf::54                      0                       # What write queue length does an incoming req see
system.mem_ctrls.wrQLenPdf::55                      0                       # What write queue length does an incoming req see
system.mem_ctrls.wrQLenPdf::56                      0                       # What write queue length does an incoming req see
system.mem_ctrls.wrQLenPdf::57                      0                       # What write queue length does an incoming req see
system.mem_ctrls.wrQLenPdf::58                      0                       # What write queue length does an incoming req see
system.mem_ctrls.wrQLenPdf::59                      0                       # What write queue length does an incoming req see
system.mem_ctrls.wrQLenPdf::60                      0                       # What write queue length does an incoming req see
system.mem_ctrls.wrQLenPdf::61                      0                       # What write queue length does an incoming req see
system.mem_ctrls.wrQLenPdf::62                      0                       # What write queue length does an incoming req see
system.mem_ctrls.wrQLenPdf::63                      0                       # What write queue length does an incoming req see
system.mem_ctrls.rdPerTurnAround::samples           44                       # Reads before turning the bus around for writes
system.mem_ctrls.rdPerTurnAround::mean     509.113636                       # Reads before turning the bus around for writes
system.mem_ctrls.rdPerTurnAround::gmean    226.548524                       # Reads before turning the bus around for writes
system.mem_ctrls.rdPerTurnAround::stdev   1553.410939                       # Reads before turning the bus around for writes
system.mem_ctrls.rdPerTurnAround::0-511            38     86.36%     86.36% # Reads before turning the bus around for writes
system.mem_ctrls.rdPerTurnAround::512-1023            5     11.36%     97.73% # Reads before turning the bus around for writes
system.mem_ctrls.rdPerTurnAround::10240-10751            1      2.27%    100.00% # Reads before turning the bus around for writes
system.mem_ctrls.rdPerTurnAround::total            44                       # Reads before turning the bus around for writes
system.mem_ctrls.wrPerTurnAround::samples           44                       # Writes before turning the bus around for reads
system.mem_ctrls.wrPerTurnAround::mean      17.090909                       # Writes before turning the bus around for reads
system.mem_ctrls.wrPerTurnAround::gmean     17.060464                       # Writes before turning the bus around for reads
system.mem_ctrls.wrPerTurnAround::stdev      1.030199                       # Writes before turning the bus around for reads
system.mem_ctrls.wrPerTurnAround::16               20     45.45%     45.45% # Writes before turning the bus around for reads
system.mem_ctrls.wrPerTurnAround::17                1      2.27%     47.73% # Writes before turning the bus around for reads
system.mem_ctrls.wrPerTurnAround::18               22     50.00%     97.73% # Writes before turning the bus around for reads
system.mem_ctrls.wrPerTurnAround::19                1      2.27%    100.00% # Writes before turning the bus around for reads
system.mem_ctrls.wrPerTurnAround::total            44                       # Writes before turning the bus around for reads
system.mem_ctrls.bytesReadWrQ                     512                       # Total number of bytes read from write queue
system.mem_ctrls.bytesReadSys                  718368                       # Total read bytes from the system interface side
system.mem_ctrls.bytesWrittenSys                30304                       # Total written bytes from the system interface side
system.mem_ctrls.avgRdBWSys                      3.83                       # Average system read bandwidth in MiByte/s
system.mem_ctrls.avgWrBWSys                      0.16                       # Average system write bandwidth in MiByte/s
system.mem_ctrls.totGap                   19476671500                       # Total gap between requests
system.mem_ctrls.avgGap                     832478.69                       # Average gap between requests
system.mem_ctrls.requestorReadBytes::.cpu.inst        96128                       # Per-requestor bytes read from memory
system.mem_ctrls.requestorReadBytes::.cpu.data       621984                       # Per-requestor bytes read from memory
system.mem_ctrls.requestorWriteBytes::.writebacks        24064                       # Per-requestor bytes write to memory
system.mem_ctrls.requestorReadRate::.cpu.inst 512527.455585496966                       # Per-requestor bytes read from memory rate (Bytes/sec)
system.mem_ctrls.requestorReadRate::.cpu.data 3316243.726436519530                       # Per-requestor bytes read from memory rate (Bytes/sec)
system.mem_ctrls.requestorWriteRate::.writebacks 128302.478894904692                       # Per-requestor bytes write to memory rate (Bytes/sec)
system.mem_ctrls.requestorReadAccesses::.cpu.inst         3004                       # Per-requestor read serviced memory accesses
system.mem_ctrls.requestorReadAccesses::.cpu.data        19445                       # Per-requestor read serviced memory accesses
system.mem_ctrls.requestorWriteAccesses::.writebacks          947                       # Per-requestor write serviced memory accesses
system.mem_ctrls.requestorReadTotalLat::.cpu.inst     73188500                       # Per-requestor read total memory access latency
system.mem_ctrls.requestorReadTotalLat::.cpu.data    555006750                       # Per-requestor read total memory access latency
system.mem_ctrls.requestorWriteTotalLat::.writebacks  98165166250                       # Per-requestor write total memory access latency
[...]
system.mem_ctrls.dram.bw_total::.cpu.data      3317609                       # Total bandwidth to/from this memory (bytes/s)
system.mem_ctrls.dram.bw_total::total         3991709                       # Total bandwidth to/from this memory (bytes/s)
system.mem_ctrls.dram.readBursts                22441                       # Number of DRAM read bursts
system.mem_ctrls.dram.writeBursts                 752                       # Number of DRAM write bursts
system.mem_ctrls.dram.perBankRdBursts::0         1308                       # Per bank write bursts
system.mem_ctrls.dram.perBankRdBursts::1         1398                       # Per bank write bursts
system.mem_ctrls.dram.perBankRdBursts::2         1722                       # Per bank write bursts
system.mem_ctrls.dram.perBankRdBursts::3         1449                       # Per bank write bursts
system.mem_ctrls.dram.perBankRdBursts::4         1673                       # Per bank write bursts
system.mem_ctrls.dram.perBankRdBursts::5         1736                       # Per bank write bursts
system.mem_ctrls.dram.perBankRdBursts::6         1692                       # Per bank write bursts
system.mem_ctrls.dram.perBankRdBursts::7         1046                       # Per bank write bursts
system.mem_ctrls.dram.perBankRdBursts::8         1142                       # Per bank write bursts
system.mem_ctrls.dram.perBankRdBursts::9         1429                       # Per bank write bursts
system.mem_ctrls.dram.perBankRdBursts::10         1312                       # Per bank write bursts
system.mem_ctrls.dram.perBankRdBursts::11         1498                       # Per bank write bursts
system.mem_ctrls.dram.perBankRdBursts::12         1614                       # Per bank write bursts
system.mem_ctrls.dram.perBankRdBursts::13         1472                       # Per bank write bursts
system.mem_ctrls.dram.perBankRdBursts::14          961                       # Per bank write bursts
system.mem_ctrls.dram.perBankRdBursts::15          989                       # Per bank write bursts
system.mem_ctrls.dram.perBankWrBursts::0            0                       # Per bank write bursts
system.mem_ctrls.dram.perBankWrBursts::1           53                       # Per bank write bursts
system.mem_ctrls.dram.perBankWrBursts::2           45                       # Per bank write bursts
system.mem_ctrls.dram.perBankWrBursts::3            0                       # Per bank write bursts
system.mem_ctrls.dram.perBankWrBursts::4          161                       # Per bank write bursts
system.mem_ctrls.dram.perBankWrBursts::5           80                       # Per bank write bursts
system.mem_ctrls.dram.perBankWrBursts::6           95                       # Per bank write bursts
system.mem_ctrls.dram.perBankWrBursts::7            7                       # Per bank write bursts
system.mem_ctrls.dram.perBankWrBursts::8            1                       # Per bank write bursts
system.mem_ctrls.dram.perBankWrBursts::9           63                       # Per bank write bursts
system.mem_ctrls.dram.perBankWrBursts::10           25                       # Per bank write bursts
system.mem_ctrls.dram.perBankWrBursts::11          105                       # Per bank write bursts
system.mem_ctrls.dram.perBankWrBursts::12           77                       # Per bank write bursts
system.mem_ctrls.dram.perBankWrBursts::13           40                       # Per bank write bursts
system.mem_ctrls.dram.perBankWrBursts::14            0                       # Per bank write bursts
system.mem_ctrls.dram.perBankWrBursts::15            0                       # Per bank write bursts
system.mem_ctrls.dram.totQLat               207426500                       # Total ticks spent queuing
system.mem_ctrls.dram.totBusLat             112205000                       # Total ticks spent in databus transfers
system.mem_ctrls.dram.totMemAccLat          628195250                       # Total ticks spent from burst creation until serviced by the DRAM
system.mem_ctrls.dram.avgQLat                 9243.19                       # Average queueing delay per DRAM burst
system.mem_ctrls.dram.avgBusLat               5000.00                       # Average bus latency per DRAM burst
system.mem_ctrls.dram.avgMemAccLat           27993.19                       # Average memory access latency per DRAM burst
system.mem_ctrls.dram.readRowHits               15340                       # Number of row buffer hits during reads
system.mem_ctrls.dram.writeRowHits                584                       # Number of row buffer hits during writes
system.mem_ctrls.dram.readRowHitRate            68.36                       # Row buffer hit rate for reads
system.mem_ctrls.dram.writeRowHitRate           77.66                       # Row buffer hit rate for writes
system.mem_ctrls.dram.bytesPerActivate::samples         7269                       # Bytes accessed per row activation
system.mem_ctrls.dram.bytesPerActivate::mean   204.203054                       # Bytes accessed per row activation
system.mem_ctrls.dram.bytesPerActivate::gmean   127.485317                       # Bytes accessed per row activation
system.mem_ctrls.dram.bytesPerActivate::stdev   251.533661                       # Bytes accessed per row activation
system.mem_ctrls.dram.bytesPerActivate::0-127         3735     51.38%     51.38% # Bytes accessed per row activation
system.mem_ctrls.dram.bytesPerActivate::128-255         1857     25.55%     76.93% # Bytes accessed per row activation
system.mem_ctrls.dram.bytesPerActivate::256-383          551      7.58%     84.51% # Bytes accessed per row activation
system.mem_ctrls.dram.bytesPerActivate::384-511          298      4.10%     88.61% # Bytes accessed per row activation
system.mem_ctrls.dram.bytesPerActivate::512-639          210      2.89%     91.50% # Bytes accessed per row activation
system.mem_ctrls.dram.bytesPerActivate::640-767           99      1.36%     92.86% # Bytes accessed per row activation
system.mem_ctrls.dram.bytesPerActivate::768-895           74      1.02%     93.88% # Bytes accessed per row activation
system.mem_ctrls.dram.bytesPerActivate::896-1023           51      0.70%     94.58% # Bytes accessed per row activation
system.mem_ctrls.dram.bytesPerActivate::1024-1151          394      5.42%    100.00% # Bytes accessed per row activation
system.mem_ctrls.dram.bytesPerActivate::total         7269                       # Bytes accessed per row activation
system.mem_ctrls.dram.bytesRead               1436224                       # Total number of bytes read from DRAM
system.mem_ctrls.dram.bytesWritten              48128                       # Total number of bytes written to DRAM
system.mem_ctrls.dram.avgRdBW                7.657542                       # Average DRAM read bandwidth in MiBytes/s
system.mem_ctrls.dram.avgWrBW                0.256605                       # Average DRAM write bandwidth in MiBytes/s
system.mem_ctrls.dram.peakBW                 12800.00                       # Theoretical peak bandwidth in MiByte/s
system.mem_ctrls.dram.busUtil                    0.06                       # Data bus utilization in percentage
system.mem_ctrls.dram.busUtilRead                0.06                       # Data bus utilization in percentage for reads
system.mem_ctrls.dram.busUtilWrite               0.00                       # Data bus utilization in percentage for writes
system.mem_ctrls.dram.pageHitRate               68.66                       # Row buffer hit rate, read and write combined
system.mem_ctrls.dram.power_state.pwrStateResidencyTicks::UNDEFINED 187556781500                       # Cumulative time (in ticks) in various power states
system.mem_ctrls.dram.rank0.actEnergy        26796420                       # Energy for activate commands per rank (pJ)
system.mem_ctrls.dram.rank0.preEnergy        14242635                       # Energy for precharge commands per rank (pJ)
system.mem_ctrls.dram.rank0.readEnergy       85851360                       # Energy for read commands per rank (pJ)
system.mem_ctrls.dram.rank0.writeEnergy       2302020                       # Energy for write commands per rank (pJ)
system.mem_ctrls.dram.rank0.refreshEnergy 14805448320.000002                       # Energy for refresh commands per rank (pJ)
system.mem_ctrls.dram.rank0.actBackEnergy   4841104050                       # Energy for active background per rank (pJ)
system.mem_ctrls.dram.rank0.preBackEnergy  67945085280                       # Energy for precharge background per rank (pJ)
system.mem_ctrls.dram.rank0.actPowerDownEnergy            0                       # Energy for active power-down per rank (pJ)
system.mem_ctrls.dram.rank0.prePowerDownEnergy            0                       # Energy for precharge power-down per rank (pJ)
system.mem_ctrls.dram.rank0.selfRefreshEnergy            0                       # Energy for self refresh per rank (pJ)
system.mem_ctrls.dram.rank0.totalEnergy   87720830085                       # Total energy per rank (pJ)
system.mem_ctrls.dram.rank0.averagePower   467.702791                       # Core power per rank (mW)
system.mem_ctrls.dram.rank0.totalIdleTime            0                       # Total Idle time Per DRAM Rank
system.mem_ctrls.dram.rank0.pwrStateTime::IDLE 176595165750                       # Time in different power states
system.mem_ctrls.dram.rank0.pwrStateTime::REF   6262880000                       # Time in different power states
system.mem_ctrls.dram.rank0.pwrStateTime::SREF            0                       # Time in different power states
system.mem_ctrls.dram.rank0.pwrStateTime::PRE_PDN            0                       # Time in different power states
system.mem_ctrls.dram.rank0.pwrStateTime::ACT   4698735750                       # Time in different power states
system.mem_ctrls.dram.rank0.pwrStateTime::ACT_PDN            0                       # Time in different power states
system.mem_ctrls.dram.rank1.actEnergy        25104240                       # Energy for activate commands per rank (pJ)
system.mem_ctrls.dram.rank1.preEnergy        13343220                       # Energy for precharge commands per rank (pJ)
system.mem_ctrls.dram.rank1.readEnergy       74377380                       # Energy for read commands per rank (pJ)
system.mem_ctrls.dram.rank1.writeEnergy       1623420                       # Energy for write commands per rank (pJ)
system.mem_ctrls.dram.rank1.refreshEnergy 14805448320.000002                       # Energy for refresh commands per rank (pJ)
system.mem_ctrls.dram.rank1.actBackEnergy   4863698850                       # Energy for active background per rank (pJ)
system.mem_ctrls.dram.rank1.preBackEnergy  67926058080                       # Energy for precharge background per rank (pJ)
system.mem_ctrls.dram.rank1.actPowerDownEnergy            0                       # Energy for active power-down per rank (pJ)
system.mem_ctrls.dram.rank1.prePowerDownEnergy            0                       # Energy for precharge power-down per rank (pJ)
system.mem_ctrls.dram.rank1.selfRefreshEnergy            0                       # Energy for self refresh per rank (pJ)
system.mem_ctrls.dram.rank1.totalEnergy   87709653510                       # Total energy per rank (pJ)
system.mem_ctrls.dram.rank1.averagePower   467.643200                       # Core power per rank (mW)
system.mem_ctrls.dram.rank1.totalIdleTime            0                       # Total Idle time Per DRAM Rank
system.mem_ctrls.dram.rank1.pwrStateTime::IDLE 176547945000                       # Time in different power states
system.mem_ctrls.dram.rank1.pwrStateTime::REF   6262880000                       # Time in different power states
system.mem_ctrls.dram.rank1.pwrStateTime::SREF            0                       # Time in different power states
system.mem_ctrls.dram.rank1.pwrStateTime::PRE_PDN            0                       # Time in different power states
system.mem_ctrls.dram.rank1.pwrStateTime::ACT   4745956500                       # Time in different power states
system.mem_ctrls.dram.rank1.pwrStateTime::ACT_PDN            0                       # Time in different power states
system.mem_ctrls.power_state.pwrStateResidencyTicks::UNDEFINED 187556781500                       # Cumulative time (in ticks) in various power states
system.membus.trans_dist::ReadResp              18400                       # Transaction distribution
system.membus.trans_dist::WritebackDirty          947                       # Transaction distribution
system.membus.trans_dist::CleanEvict             3862                       # Transaction distribution
system.membus.trans_dist::ReadExReq              4049                       # Transaction distribution
system.membus.trans_dist::ReadExResp             4049                       # Transaction distribution
system.membus.trans_dist::ReadSharedReq         18400                       # Transaction distribution
system.membus.pkt_count_system.l2.mem_side_port::system.mem_ctrls.port        49707                       # Packet count per connected requestor and responder (bytes)
system.membus.pkt_count_system.l2.mem_side_port::total        49707                       # Packet count per connected requestor and responder (bytes)
system.membus.pkt_count::total                  49707                       # Packet count per connected requestor and responder (bytes)
system.membus.pkt_size_system.l2.mem_side_port::system.mem_ctrls.port       748672                       # Cumulative packet size per connected requestor and responder (bytes)
system.membus.pkt_size_system.l2.mem_side_port::total       748672                       # Cumulative packet size per connected requestor and responder (bytes)
system.membus.pkt_size::total                  748672                       # Cumulative packet size per connected requestor and responder (bytes)
system.membus.snoops                                0                       # Total snoops (count)
system.membus.snoopTraffic                          0                       # Total snoop traffic (bytes)
system.membus.snoop_fanout::samples             22449                       # Request fanout histogram
system.membus.snoop_fanout::mean                    0                       # Request fanout histogram
system.membus.snoop_fanout::stdev                   0                       # Request fanout histogram
system.membus.snoop_fanout::underflows              0      0.00%      0.00% # Request fanout histogram
system.membus.snoop_fanout::0                   22449    100.00%    100.00% # Request fanout histogram
system.membus.snoop_fanout::1                       0      0.00%    100.00% # Request fanout histogram
system.membus.snoop_fanout::overflows               0      0.00%    100.00% # Request fanout histogram
system.membus.snoop_fanout::min_value               0                       # Request fanout histogram
system.membus.snoop_fanout::max_value               0                       # Request fanout histogram
system.membus.snoop_fanout::total               22449                       # Request fanout histogram
system.membus.power_state.pwrStateResidencyTicks::UNDEFINED 187556781500                       # Cumulative time (in ticks) in various power states
system.membus.reqLayer2.occupancy            29173000                       # Layer occupancy (ticks)
system.membus.reqLayer2.utilization               0.0                       # Layer utilization (%)
system.membus.respLayer1.occupancy           75146750                       # Layer occupancy (ticks)
system.membus.respLayer1.utilization              0.0                       # Layer utilization (%)
system.tol2bus.trans_dist::ReadResp             18479                       # Transaction distribution
system.tol2bus.trans_dist::WritebackDirty         2409                       # Transaction distribution
system.tol2bus.trans_dist::WritebackClean          501                       # Transaction distribution
system.tol2bus.trans_dist::CleanEvict           23043                       # Transaction distribution
system.tol2bus.trans_dist::ReadExReq             4155                       # Transaction distribution
system.tol2bus.trans_dist::ReadExResp            4155                       # Transaction distribution
system.tol2bus.trans_dist::ReadCleanReq          3013                       # Transaction distribution
system.tol2bus.trans_dist::ReadSharedReq        15466                       # Transaction distribution
system.tol2bus.pkt_count_system.cpu.icache.mem_side_port::system.l2.cpu_side_port         6527                       # Packet count per connected requestor and responder (bytes)
system.tol2bus.pkt_count_system.cpu.dcache.mem_side_port::system.l2.cpu_side_port        44417                       # Packet count per connected requestor and responder (bytes)
system.tol2bus.pkt_count::total                 50944                       # Packet count per connected requestor and responder (bytes)
system.tol2bus.pkt_size_system.cpu.icache.mem_side_port::system.l2.cpu_side_port       112448                       # Cumulative packet size per connected requestor and responder (bytes)
system.tol2bus.pkt_size_system.cpu.dcache.mem_side_port::system.l2.cpu_side_port       674656                       # Cumulative packet size per connected requestor and responder (bytes)
system.tol2bus.pkt_size::total                 787104                       # Cumulative packet size per connected requestor and responder (bytes)
system.tol2bus.snoops                           20277                       # Total snoops (count)
system.tol2bus.snoopTraffic                     30304                       # Total snoop traffic (bytes)
system.tol2bus.snoop_fanout::samples            42911                       # Request fanout histogram
system.tol2bus.snoop_fanout::mean            0.444665                       # Request fanout histogram
system.tol2bus.snoop_fanout::stdev           0.496934                       # Request fanout histogram
system.tol2bus.snoop_fanout::underflows             0      0.00%      0.00% # Request fanout histogram
system.tol2bus.snoop_fanout::0                  23830     55.53%     55.53% # Request fanout histogram
system.tol2bus.snoop_fanout::1                  19081     44.47%    100.00% # Request fanout histogram
system.tol2bus.snoop_fanout::2                      0      0.00%    100.00% # Request fanout histogram
system.tol2bus.snoop_fanout::3                      0      0.00%    100.00% # Request fanout histogram
system.tol2bus.snoop_fanout::4                      0      0.00%    100.00% # Request fanout histogram
system.tol2bus.snoop_fanout::overflows              0      0.00%    100.00% # Request fanout histogram
system.tol2bus.snoop_fanout::min_value              0                       # Request fanout histogram
system.tol2bus.snoop_fanout::max_value              1                       # Request fanout histogram
system.tol2bus.snoop_fanout::total              42911                       # Request fanout histogram
system.tol2bus.power_state.pwrStateResidencyTicks::UNDEFINED 187556781500                       # Cumulative time (in ticks) in various power states
system.tol2bus.reqLayer0.occupancy           15136500                       # Layer occupancy (ticks)
system.tol2bus.reqLayer0.utilization              0.0                       # Layer utilization (%)
system.tol2bus.respLayer0.occupancy           3013000                       # Layer occupancy (ticks)
system.tol2bus.respLayer0.utilization             0.0                       # Layer utilization (%)
system.tol2bus.respLayer1.occupancy          19621000                       # Layer occupancy (ticks)
system.tol2bus.respLayer1.utilization             0.0                       # Layer utilization (%)
system.voltage_domain.voltage                       1                       # Voltage in Volts

---------- End Simulation Statistics   ----------
