
---------- Begin Simulation Statistics ----------
final_tick                                 1468152500                       # Number of ticks from beginning of simulation (restored from checkpoints and never reset)
host_inst_rate                                 225143                       # Simulator instruction rate (inst/s)
host_mem_usage                                 695840                       # Number of bytes of host memory used
host_op_rate                                   420181                       # Simulator op (including micro ops) rate (op/s)
host_seconds                                     2.09                       # Real time elapsed on the host
host_tick_rate                              702720888                       # Simulator tick rate (ticks/s)
sim_freq                                 1000000000000                       # Frequency of simulated ticks
sim_insts                                      470280                       # Number of instructions simulated
sim_ops                                        877835                       # Number of ops (including micro ops) simulated
sim_seconds                                  0.001468                       # Number of seconds simulated
sim_ticks                                  1468152500                       # Number of ticks simulated
system.cpu.Branches                             72604                       # Number of branches fetched
system.cpu.committedInsts                      470280                       # Number of instructions committed
system.cpu.committedOps                        877835                       # Number of ops (including micro ops) committed
system.cpu.idle_fraction                     0.000000                       # Percentage of idle cycles
system.cpu.not_idle_fraction                 1.000000                       # Percentage of non-idle cycles
system.cpu.numCycles                          2936305                       # number of cpu cycles simulated
system.cpu.numWorkItemsCompleted                    0                       # number of work items this cpu completed
system.cpu.numWorkItemsStarted                      0                       # number of work items this cpu started
system.cpu.num_busy_cycles               2936304.998000                       # Number of busy cycles
system.cpu.num_cc_register_reads               329877                       # number of times the CC registers were read
system.cpu.num_cc_register_writes              220612                       # number of times the CC registers were written
system.cpu.num_conditional_control_insts        50060                       # number of instructions that are conditional controls
system.cpu.num_fp_alu_accesses                 253735                       # Number of float alu accesses
system.cpu.num_fp_insts                        253735                       # number of float instructions
system.cpu.num_fp_register_reads               239399                       # number of times the floating registers were read
system.cpu.num_fp_register_writes              213269                       # number of times the floating registers were written
system.cpu.num_func_calls                       13694                       # number of times a function call or return occured
system.cpu.num_idle_cycles                   0.002000                       # Number of idle cycles
system.cpu.num_int_alu_accesses                720319                       # Number of integer alu accesses
system.cpu.num_int_insts                       720319                       # number of integer instructions
system.cpu.num_int_register_reads             1479845                       # number of times the integer registers were read
system.cpu.num_int_register_writes             517806                       # number of times the integer registers were written
system.cpu.num_load_insts                      144784                       # Number of load instructions
system.cpu.num_mem_refs                        211985                       # number of memory refs
system.cpu.num_store_insts                      67201                       # Number of store instructions
system.cpu.num_vec_alu_accesses                     0                       # Number of vector alu accesses
system.cpu.num_vec_insts                            0                       # number of vector instructions
system.cpu.num_vec_register_reads                   0                       # number of times the vector registers were read
system.cpu.num_vec_register_writes                  0                       # number of times the vector registers were written
system.cpu.op_class::No_OpClass                 11339      1.29%      1.29% # Class of executed instruction
system.cpu.op_class::IntAlu                    504634     57.48%     58.77% # Class of executed instruction
system.cpu.op_class::IntMult                      123      0.01%     58.78% # Class of executed instruction
system.cpu.op_class::IntDiv                      2125      0.24%     59.02% # Class of executed instruction
system.cpu.op_class::FloatAdd                   69680      7.94%     66.96% # Class of executed instruction
system.cpu.op_class::FloatCmp                       0      0.00%     66.96% # Class of executed instruction
system.cpu.op_class::FloatCvt                      32      0.00%     66.96% # Class of executed instruction
system.cpu.op_class::FloatMult                      0      0.00%     66.96% # Class of executed instruction
system.cpu.op_class::FloatMultAcc                   0      0.00%     66.96% # Class of executed instruction
system.cpu.op_class::FloatDiv                       0      0.00%     66.96% # Class of executed instruction
system.cpu.op_class::FloatMisc                      0      0.00%     66.96% # Class of executed instruction
system.cpu.op_class::FloatSqrt                      0      0.00%     66.96% # Class of executed instruction
system.cpu.op_class::SimdAdd                      554      0.06%     67.03% # Class of executed instruction
system.cpu.op_class::SimdAddAcc                     0      0.00%     67.03% # Class of executed instruction
system.cpu.op_class::SimdAlu                     9039      1.03%     68.06% # Class of executed instruction
system.cpu.op_class::SimdCmp                        0      0.00%     68.06% # Class of executed instruction
system.cpu.op_class::SimdCvt                     1366      0.16%     68.21% # Class of executed instruction
system.cpu.op_class::SimdMisc                   11506      1.31%     69.52% # Class of executed instruction
system.cpu.op_class::SimdMult                       0      0.00%     69.52% # Class of executed instruction
system.cpu.op_class::SimdMultAcc                    0      0.00%     69.52% # Class of executed instruction
system.cpu.op_class::SimdShift                    174      0.02%     69.54% # Class of executed instruction
system.cpu.op_class::SimdShiftAcc                   0      0.00%     69.54% # Class of executed instruction
system.cpu.op_class::SimdDiv                        0      0.00%     69.54% # Class of executed instruction
system.cpu.op_class::SimdSqrt                       0      0.00%     69.54% # Class of executed instruction
system.cpu.op_class::SimdFloatAdd               15212      1.73%     71.28% # Class of executed instruction
system.cpu.op_class::SimdFloatAlu                   0      0.00%     71.28% # Class of executed instruction
system.cpu.op_class::SimdFloatCmp                   0      0.00%     71.28% # Class of executed instruction
system.cpu.op_class::SimdFloatCvt               15412      1.76%     73.03% # Class of executed instruction
system.cpu.op_class::SimdFloatDiv                1600      0.18%     73.21% # Class of executed instruction
system.cpu.op_class::SimdFloatMisc                  0      0.00%     73.21% # Class of executed instruction
system.cpu.op_class::SimdFloatMult              22800      2.60%     75.81% # Class of executed instruction
system.cpu.op_class::SimdFloatMultAcc               0      0.00%     75.81% # Class of executed instruction
system.cpu.op_class::SimdFloatSqrt                400      0.05%     75.86% # Class of executed instruction
system.cpu.op_class::SimdReduceAdd                  0      0.00%     75.86% # Class of executed instruction
system.cpu.op_class::SimdReduceAlu                  0      0.00%     75.86% # Class of executed instruction
system.cpu.op_class::SimdReduceCmp                  0      0.00%     75.86% # Class of executed instruction
system.cpu.op_class::SimdFloatReduceAdd             0      0.00%     75.86% # Class of executed instruction
system.cpu.op_class::SimdFloatReduceCmp             0      0.00%     75.86% # Class of executed instruction
system.cpu.op_class::SimdAes                        0      0.00%     75.86% # Class of executed instruction
system.cpu.op_class::SimdAesMix                     0      0.00%     75.86% # Class of executed instruction
system.cpu.op_class::SimdSha1Hash                   0      0.00%     75.86% # Class of executed instruction
system.cpu.op_class::SimdSha1Hash2                  0      0.00%     75.86% # Class of executed instruction
system.cpu.op_class::SimdSha256Hash                 0      0.00%     75.86% # Class of executed instruction
system.cpu.op_class::SimdSha256Hash2                0      0.00%     75.86% # Class of executed instruction
system.cpu.op_class::SimdShaSigma2                  0      0.00%     75.86% # Class of executed instruction
system.cpu.op_class::SimdShaSigma3                  0      0.00%     75.86% # Class of executed instruction
system.cpu.op_class::SimdPredAlu                    0      0.00%     75.86% # Class of executed instruction
system.cpu.op_class::MemRead                    82126      9.35%     85.21% # Class of executed instruction
system.cpu.op_class::MemWrite                   33564      3.82%     89.03% # Class of executed instruction
system.cpu.op_class::FloatMemRead               62658      7.14%     96.17% # Class of executed instruction
system.cpu.op_class::FloatMemWrite              33637      3.83%    100.00% # Class of executed instruction
system.cpu.op_class::IprAccess                      0      0.00%    100.00% # Class of executed instruction
system.cpu.op_class::InstPrefetch                   0      0.00%    100.00% # Class of executed instruction
system.cpu.op_class::total                     877981                       # Class of executed instruction
system.cpu.workload.numSyscalls                    57                       # Number of system calls
system.membus.snoop_filter.hit_multi_requests            0                       # Number of requests hitting in the snoop filter with multiple (>1) holders of the requested data.
system.membus.snoop_filter.hit_multi_snoops            0                       # Number of snoops hitting in the snoop filter with multiple (>1) holders of the requested data.
system.membus.snoop_filter.hit_single_requests         1096                       # Number of requests hitting in the snoop filter with a single holder of the requested data.
system.membus.snoop_filter.hit_single_snoops            0                       # Number of snoops hitting in the snoop filter with a single holder of the requested data.
system.membus.snoop_filter.tot_requests          9032                       # Total number of requests made to the snoop filter.
system.membus.snoop_filter.tot_snoops               0                       # Total number of snoops made to the snoop filter.
system.tol2bus.snoop_filter.hit_multi_requests            0                       # Number of requests hitting in the snoop filter with multiple (>1) holders of the requested data.
system.tol2bus.snoop_filter.hit_multi_snoops            0                       # Number of snoops hitting in the snoop filter with multiple (>1) holders of the requested data.
system.tol2bus.snoop_filter.hit_single_requests         1678                       # Number of requests hitting in the snoop filter with a single holder of the requested data.
system.tol2bus.snoop_filter.hit_single_snoops         4327                       # Number of snoops hitting in the snoop filter with a single holder of the requested data.
system.tol2bus.snoop_filter.tot_requests         9717                       # Total number of requests made to the snoop filter.
system.tol2bus.snoop_filter.tot_snoops           4327                       # Total number of snoops made to the snoop filter.
system.clk_domain.clock                          1000                       # Clock period in ticks
system.cpu.dcache.demand_hits::.cpu.data       214351                       # number of demand (read+write) hits
system.cpu.dcache.demand_hits::total           214351                       # number of demand (read+write) hits
system.cpu.dcache.overall_hits::.cpu.data       214351                       # number of overall hits
system.cpu.dcache.overall_hits::total          214351                       # number of overall hits
system.cpu.dcache.demand_misses::.cpu.data         5395                       # number of demand (read+write) misses
system.cpu.dcache.demand_misses::total           5395                       # number of demand (read+write) misses
system.cpu.dcache.overall_misses::.cpu.data         5395                       # number of overall misses
system.cpu.dcache.overall_misses::total          5395                       # number of overall misses
system.cpu.dcache.demand_miss_latency::.cpu.data    413489500                       # number of demand (read+write) miss cycles
system.cpu.dcache.demand_miss_latency::total    413489500                       # number of demand (read+write) miss cycles
system.cpu.dcache.overall_miss_latency::.cpu.data    413489500                       # number of overall miss cycles
system.cpu.dcache.overall_miss_latency::total    413489500                       # number of overall miss cycles
system.cpu.dcache.demand_accesses::.cpu.data       219746                       # number of demand (read+write) accesses
system.cpu.dcache.demand_accesses::total       219746                       # number of demand (read+write) accesses
system.cpu.dcache.overall_accesses::.cpu.data       219746                       # number of overall (read+write) accesses
system.cpu.dcache.overall_accesses::total       219746                       # number of overall (read+write) accesses
system.cpu.dcache.demand_miss_rate::.cpu.data     0.024551                       # miss rate for demand accesses
system.cpu.dcache.demand_miss_rate::total     0.024551                       # miss rate for demand accesses
system.cpu.dcache.overall_miss_rate::.cpu.data     0.024551                       # miss rate for overall accesses
system.cpu.dcache.overall_miss_rate::total     0.024551                       # miss rate for overall accesses
system.cpu.dcache.demand_avg_miss_latency::.cpu.data 76643.095459                       # average overall miss latency
system.cpu.dcache.demand_avg_miss_latency::total 76643.095459                       # average overall miss latency
system.cpu.dcache.overall_avg_miss_latency::.cpu.data 76643.095459                       # average overall miss latency
system.cpu.dcache.overall_avg_miss_latency::total 76643.095459                       # average overall miss latency
system.cpu.dcache.blocked_cycles::no_mshrs            0                       # number of cycles access was blocked
system.cpu.dcache.blocked_cycles::no_targets            0                       # number of cycles access was blocked
system.cpu.dcache.blocked::no_mshrs                 0                       # number of cycles access was blocked
system.cpu.dcache.blocked::no_targets               0                       # number of cycles access was blocked
system.cpu.dcache.avg_blocked_cycles::no_mshrs          nan                       # average number of cycles each access was blocked
system.cpu.dcache.avg_blocked_cycles::no_targets          nan                       # average number of cycles each access was blocked
system.cpu.dcache.writebacks::.writebacks          557                       # number of writebacks
system.cpu.dcache.writebacks::total               557                       # number of writebacks
system.cpu.dcache.demand_mshr_misses::.cpu.data         5395                       # number of demand (read+write) MSHR misses
system.cpu.dcache.demand_mshr_misses::total         5395                       # number of demand (read+write) MSHR misses
system.cpu.dcache.overall_mshr_misses::.cpu.data         5395                       # number of overall MSHR misses
system.cpu.dcache.overall_mshr_misses::total         5395                       # number of overall MSHR misses
system.cpu.dcache.demand_mshr_miss_latency::.cpu.data    408094500                       # number of demand (read+write) MSHR miss cycles
system.cpu.dcache.demand_mshr_miss_latency::total    408094500                       # number of demand (read+write) MSHR miss cycles
system.cpu.dcache.overall_mshr_miss_latency::.cpu.data    408094500                       # number of overall MSHR miss cycles
system.cpu.dcache.overall_mshr_miss_latency::total    408094500                       # number of overall MSHR miss cycles
system.cpu.dcache.demand_mshr_miss_rate::.cpu.data     0.024551                       # mshr miss rate for demand accesses
system.cpu.dcache.demand_mshr_miss_rate::total     0.024551                       # mshr miss rate for demand accesses
system.cpu.dcache.overall_mshr_miss_rate::.cpu.data     0.024551                       # mshr miss rate for overall accesses
system.cpu.dcache.overall_mshr_miss_rate::total     0.024551                       # mshr miss rate for overall accesses
system.cpu.dcache.demand_avg_mshr_miss_latency::.cpu.data 75643.095459                       # average overall mshr miss latency
system.cpu.dcache.demand_avg_mshr_miss_latency::total 75643.095459                       # average overall mshr miss latency
system.cpu.dcache.overall_avg_mshr_miss_latency::.cpu.data 75643.095459                       # average overall mshr miss latency
system.cpu.dcache.overall_avg_mshr_miss_latency::total 75643.095459                       # average overall mshr miss latency
system.cpu.dcache.replacements                   1511                       # number of replacements
system.cpu.dcache.ReadReq_hits::.cpu.data       148305                       # number of ReadReq hits
system.cpu.dcache.ReadReq_hits::total          148305                       # number of ReadReq hits
system.cpu.dcache.ReadReq_misses::.cpu.data         4257                       # number of ReadReq misses
system.cpu.dcache.ReadReq_misses::total          4257                       # number of ReadReq misses
system.cpu.dcache.ReadReq_miss_latency::.cpu.data    326448000                       # number of ReadReq miss cycles
system.cpu.dcache.ReadReq_miss_latency::total    326448000                       # number of ReadReq miss cycles
system.cpu.dcache.ReadReq_accesses::.cpu.data       152562                       # number of ReadReq accesses(hits+misses)
system.cpu.dcache.ReadReq_accesses::total       152562                       # number of ReadReq accesses(hits+misses)
system.cpu.dcache.ReadReq_miss_rate::.cpu.data     0.027903                       # miss rate for ReadReq accesses
system.cpu.dcache.ReadReq_miss_rate::total     0.027903                       # miss rate for ReadReq accesses
system.cpu.dcache.ReadReq_avg_miss_latency::.cpu.data 76684.989429                       # average ReadReq miss latency
system.cpu.dcache.ReadReq_avg_miss_latency::total 76684.989429                       # average ReadReq miss latency
system.cpu.dcache.ReadReq_mshr_misses::.cpu.data         4257                       # number of ReadReq MSHR misses
system.cpu.dcache.ReadReq_mshr_misses::total         4257                       # number of ReadReq MSHR misses
system.cpu.dcache.ReadReq_mshr_miss_latency::.cpu.data    322191000                       # number of ReadReq MSHR miss cycles
system.cpu.dcache.ReadReq_mshr_miss_latency::total    322191000                       # number of ReadReq MSHR miss cycles
system.cpu.dcache.ReadReq_mshr_miss_rate::.cpu.data     0.027903                       # mshr miss rate for ReadReq accesses
system.cpu.dcache.ReadReq_mshr_miss_rate::total     0.027903                       # mshr miss rate for ReadReq accesses
system.cpu.dcache.ReadReq_avg_mshr_miss_latency::.cpu.data 75684.989429                       # average ReadReq mshr miss latency
system.cpu.dcache.ReadReq_avg_mshr_miss_latency::total 75684.989429                       # average ReadReq mshr miss latency
system.cpu.dcache.WriteReq_hits::.cpu.data        66046                       # number of WriteReq hits
system.cpu.dcache.WriteReq_hits::total          66046                       # number of WriteReq hits
system.cpu.dcache.WriteReq_misses::.cpu.data         1138                       # number of WriteReq misses
system.cpu.dcache.WriteReq_misses::total         1138                       # number of WriteReq misses
system.cpu.dcache.WriteReq_miss_latency::.cpu.data     87041500                       # number of WriteReq miss cycles
system.cpu.dcache.WriteReq_miss_latency::total     87041500                       # number of WriteReq miss cycles
system.cpu.dcache.WriteReq_accesses::.cpu.data        67184                       # number of WriteReq accesses(hits+misses)
system.cpu.dcache.WriteReq_accesses::total        67184                       # number of WriteReq accesses(hits+misses)
system.cpu.dcache.WriteReq_miss_rate::.cpu.data     0.016939                       # miss rate for WriteReq accesses
system.cpu.dcache.WriteReq_miss_rate::total     0.016939                       # miss rate for WriteReq accesses
system.cpu.dcache.WriteReq_avg_miss_latency::.cpu.data 76486.379613                       # average WriteReq miss latency
system.cpu.dcache.WriteReq_avg_miss_latency::total 76486.379613                       # average WriteReq miss latency
system.cpu.dcache.WriteReq_mshr_misses::.cpu.data         1138                       # number of WriteReq MSHR misses
system.cpu.dcache.WriteReq_mshr_misses::total         1138                       # number of WriteReq MSHR misses
system.cpu.dcache.WriteReq_mshr_miss_latency::.cpu.data     85903500                       # number of WriteReq MSHR miss cycles
system.cpu.dcache.WriteReq_mshr_miss_latency::total     85903500                       # number of WriteReq MSHR miss cycles
system.cpu.dcache.WriteReq_mshr_miss_rate::.cpu.data     0.016939                       # mshr miss rate for WriteReq accesses
system.cpu.dcache.WriteReq_mshr_miss_rate::total     0.016939                       # mshr miss rate for WriteReq accesses
system.cpu.dcache.WriteReq_avg_mshr_miss_latency::.cpu.data 75486.379613                       # average WriteReq mshr miss latency
system.cpu.dcache.WriteReq_avg_mshr_miss_latency::total 75486.379613                       # average WriteReq mshr miss latency
system.cpu.dcache.power_state.pwrStateResidencyTicks::UNDEFINED   1468152500                       # Cumulative time (in ticks) in various power states
system.cpu.dcache.tags.tagsinuse          2954.840114                       # Cycle average of tags in use
system.cpu.dcache.tags.total_refs              219746                       # Total number of references to valid blocks.
system.cpu.dcache.tags.sampled_refs              5395                       # Sample count of references to valid blocks.
system.cpu.dcache.tags.avg_refs             40.731418                       # Average number of references to valid blocks.
system.cpu.dcache.tags.warmup_cycle            174500                       # Cycle when the warmup percentage was hit.
system.cpu.dcache.tags.occ_blocks::.cpu.data  2954.840114                       # Average occupied blocks per requestor
system.cpu.dcache.tags.occ_percent::.cpu.data     0.721397                       # Average percentage of cache occupancy
system.cpu.dcache.tags.occ_percent::total     0.721397                       # Average percentage of cache occupancy
system.cpu.dcache.tags.occ_task_id_blocks::1024         3884                       # Occupied blocks per task id
system.cpu.dcache.tags.age_task_id_blocks_1024::0           27                       # Occupied blocks per task id
system.cpu.dcache.tags.age_task_id_blocks_1024::1           19                       # Occupied blocks per task id
system.cpu.dcache.tags.age_task_id_blocks_1024::2         2300                       # Occupied blocks per task id
system.cpu.dcache.tags.age_task_id_blocks_1024::3         1538                       # Occupied blocks per task id
system.cpu.dcache.tags.occ_task_id_percent::1024     0.948242                       # Percentage of cache occupancy per task id
system.cpu.dcache.tags.tag_accesses            444887                       # Number of tag accesses
system.cpu.dcache.tags.data_accesses           444887                       # Number of data accesses
system.cpu.dcache.tags.power_state.pwrStateResidencyTicks::UNDEFINED   1468152500                       # Cumulative time (in ticks) in various power states
system.cpu.dtb.rdAccesses                      152635                       # TLB accesses on read requests
system.cpu.dtb.wrAccesses                       67201                       # TLB accesses on write requests
system.cpu.dtb.rdMisses                           234                       # TLB misses on read requests
system.cpu.dtb.wrMisses                            43                       # TLB misses on write requests
system.cpu.dtb.walker.power_state.pwrStateResidencyTicks::UNDEFINED   1468152500                       # Cumulative time (in ticks) in various power states
system.cpu.dtb_walker_cache.blocked_cycles::no_mshrs            0                       # number of cycles access was blocked
system.cpu.dtb_walker_cache.blocked_cycles::no_targets            0                       # number of cycles access was blocked
system.cpu.dtb_walker_cache.blocked::no_mshrs            0                       # number of cycles access was blocked
system.cpu.dtb_walker_cache.blocked::no_targets            0                       # number of cycles access was blocked
system.cpu.dtb_walker_cache.avg_blocked_cycles::no_mshrs          nan                       # average number of cycles each access was blocked
system.cpu.dtb_walker_cache.avg_blocked_cycles::no_targets          nan                       # average number of cycles each access was blocked
system.cpu.dtb_walker_cache.replacements            0                       # number of replacements
system.cpu.dtb_walker_cache.power_state.pwrStateResidencyTicks::UNDEFINED   1468152500                       # Cumulative time (in ticks) in various power states
system.cpu.dtb_walker_cache.tags.tagsinuse            0                       # Cycle average of tags in use
system.cpu.dtb_walker_cache.tags.total_refs            0                       # Total number of references to valid blocks.
system.cpu.dtb_walker_cache.tags.sampled_refs            0                       # Sample count of references to valid blocks.
system.cpu.dtb_walker_cache.tags.avg_refs          nan                       # Average number of references to valid blocks.
system.cpu.dtb_walker_cache.tags.warmup_cycle            0                       # Cycle when the warmup percentage was hit.
system.cpu.dtb_walker_cache.tags.tag_accesses            0                       # Number of tag accesses
system.cpu.dtb_walker_cache.tags.data_accesses            0                       # Number of data accesses
system.cpu.dtb_walker_cache.tags.power_state.pwrStateResidencyTicks::UNDEFINED   1468152500                       # Cumulative time (in ticks) in various power states
system.cpu.icache.demand_hits::.cpu.inst       640352                       # number of demand (read+write) hits
system.cpu.icache.demand_hits::total           640352                       # number of demand (read+write) hits
system.cpu.icache.overall_hits::.cpu.inst       640352                       # number of overall hits
system.cpu.icache.overall_hits::total          640352                       # number of overall hits
system.cpu.icache.demand_misses::.cpu.inst         2644                       # number of demand (read+write) misses
system.cpu.icache.demand_misses::total           2644                       # number of demand (read+write) misses
system.cpu.icache.overall_misses::.cpu.inst         2644                       # number of overall misses
system.cpu.icache.overall_misses::total          2644                       # number of overall misses
system.cpu.icache.demand_miss_latency::.cpu.inst    204064000                       # number of demand (read+write) miss cycles
system.cpu.icache.demand_miss_latency::total    204064000                       # number of demand (read+write) miss cycles
system.cpu.icache.overall_miss_latency::.cpu.inst    204064000                       # number of overall miss cycles
system.cpu.icache.overall_miss_latency::total    204064000                       # number of overall miss cycles
system.cpu.icache.demand_accesses::.cpu.inst       642996                       # number of demand (read+write) accesses
system.cpu.icache.demand_accesses::total       642996                       # number of demand (read+write) accesses
system.cpu.icache.overall_accesses::.cpu.inst       642996                       # number of overall (read+write) accesses
system.cpu.icache.overall_accesses::total       642996                       # number of overall (read+write) accesses
system.cpu.icache.demand_miss_rate::.cpu.inst     0.004112                       # miss rate for demand accesses
system.cpu.icache.demand_miss_rate::total     0.004112                       # miss rate for demand accesses
system.cpu.icache.overall_miss_rate::.cpu.inst     0.004112                       # miss rate for overall accesses
system.cpu.icache.overall_miss_rate::total     0.004112                       # miss rate for overall accesses
system.cpu.icache.demand_avg_miss_latency::.cpu.inst 77180.030257                       # average overall miss latency
system.cpu.icache.demand_avg_miss_latency::total 77180.030257                       # average overall miss latency
system.cpu.icache.overall_avg_miss_latency::.cpu.inst 77180.030257                       # average overall miss latency
system.cpu.icache.overall_avg_miss_latency::total 77180.030257                       # average overall miss latency
system.cpu.icache.blocked_cycles::no_mshrs            0                       # number of cycles access was blocked
system.cpu.icache.blocked_cycles::no_targets            0                       # number of cycles access was blocked
system.cpu.icache.blocked::no_mshrs                 0                       # number of cycles access was blocked
system.cpu.icache.blocked::no_targets               0                       # number of cycles access was blocked
system.cpu.icache.avg_blocked_cycles::no_mshrs          nan                       # average number of cycles each access was blocked
system.cpu.icache.avg_blocked_cycles::no_targets          nan                       # average number of cycles each access was blocked
system.cpu.icache.writebacks::.writebacks          167                       # number of writebacks
system.cpu.icache.writebacks::total               167                       # number of writebacks
system.cpu.icache.demand_mshr_misses::.cpu.inst         2644                       # number of demand (read+write) MSHR misses
system.cpu.icache.demand_mshr_misses::total         2644                       # number of demand (read+write) MSHR misses
system.cpu.icache.overall_mshr_misses::.cpu.inst         2644                       # number of overall MSHR misses
system.cpu.icache.overall_mshr_misses::total         2644                       # number of overall MSHR misses
system.cpu.icache.demand_mshr_miss_latency::.cpu.inst    201420000                       # number of demand (read+write) MSHR miss cycles
system.cpu.icache.demand_mshr_miss_latency::total    201420000                       # number of demand (read+write) MSHR miss cycles
system.cpu.icache.overall_mshr_miss_latency::.cpu.inst    201420000                       # number of overall MSHR miss cycles
system.cpu.icache.overall_mshr_miss_latency::total    201420000                       # number of overall MSHR miss cycles
system.cpu.icache.demand_mshr_miss_rate::.cpu.inst     0.004112                       # mshr miss rate for demand accesses
system.cpu.icache.demand_mshr_miss_rate::total     0.004112                       # mshr miss rate for demand accesses
system.cpu.icache.overall_mshr_miss_rate::.cpu.inst     0.004112                       # mshr miss rate for overall accesses
system.cpu.icache.overall_mshr_miss_rate::total     0.004112                       # mshr miss rate for overall accesses
system.cpu.icache.demand_avg_mshr_miss_latency::.cpu.inst 76180.030257                       # average overall mshr miss latency
system.cpu.icache.demand_avg_mshr_miss_latency::total 76180.030257                       # average overall mshr miss latency
system.cpu.icache.overall_avg_mshr_miss_latency::.cpu.inst 76180.030257                       # average overall mshr miss latency
system.cpu.icache.overall_avg_mshr_miss_latency::total 76180.030257                       # average overall mshr miss latency
system.cpu.icache.replacements                    167                       # number of replacements
system.cpu.icache.ReadReq_hits::.cpu.inst       640352                       # number of ReadReq hits
system.cpu.icache.ReadReq_hits::total          640352                       # number of ReadReq hits
system.cpu.icache.ReadReq_misses::.cpu.inst         2644                       # number of ReadReq misses
system.cpu.icache.ReadReq_misses::total          2644                       # number of ReadReq misses
system.cpu.icache.ReadReq_miss_latency::.cpu.inst    204064000                       # number of ReadReq miss cycles
system.cpu.icache.ReadReq_miss_latency::total    204064000                       # number of ReadReq miss cycles
system.cpu.icache.ReadReq_accesses::.cpu.inst       642996                       # number of ReadReq accesses(hits+misses)
system.cpu.icache.ReadReq_accesses::total       642996                       # number of ReadReq accesses(hits+misses)
system.cpu.icache.ReadReq_miss_rate::.cpu.inst     0.004112                       # miss rate for ReadReq accesses
system.cpu.icache.ReadReq_miss_rate::total     0.004112                       # miss rate for ReadReq accesses
system.cpu.icache.ReadReq_avg_miss_latency::.cpu.inst 77180.030257                       # average ReadReq miss latency
system.cpu.icache.ReadReq_avg_miss_latency::total 77180.030257                       # average ReadReq miss latency
system.cpu.icache.ReadReq_mshr_misses::.cpu.inst         2644                       # number of ReadReq MSHR misses
system.cpu.icache.ReadReq_mshr_misses::total         2644                       # number of ReadReq MSHR misses
system.cpu.icache.ReadReq_mshr_miss_latency::.cpu.inst    201420000                       # number of ReadReq MSHR miss cycles
system.cpu.icache.ReadReq_mshr_miss_latency::total    201420000                       # number of ReadReq MSHR miss cycles
system.cpu.icache.ReadReq_mshr_miss_rate::.cpu.inst     0.004112                       # mshr miss rate for ReadReq accesses
system.cpu.icache.ReadReq_mshr_miss_rate::total     0.004112                       # mshr miss rate for ReadReq accesses
system.cpu.icache.ReadReq_avg_mshr_miss_latency::.cpu.inst 76180.030257                       # average ReadReq mshr miss latency
system.cpu.icache.ReadReq_avg_mshr_miss_latency::total 76180.030257                       # average ReadReq mshr miss latency
system.cpu.icache.power_state.pwrStateResidencyTicks::UNDEFINED   1468152500                       # Cumulative time (in ticks) in various power states
system.cpu.icache.tags.tagsinuse          1557.418292                       # Cycle average of tags in use
system.cpu.icache.tags.total_refs              642996                       # Total number of references to valid blocks.
system.cpu.icache.tags.sampled_refs              2644                       # Sample count of references to valid blocks.
system.cpu.icache.tags.avg_refs            243.190620                       # Average number of references to valid blocks.
system.cpu.icache.tags.warmup_cycle             87500                       # Cycle when the warmup percentage was hit.
system.cpu.icache.tags.occ_blocks::.cpu.inst  1557.418292                       # Average occupied blocks per requestor
system.cpu.icache.tags.occ_percent::.cpu.inst     0.380229                       # Average percentage of cache occupancy
system.cpu.icache.tags.occ_percent::total     0.380229                       # Average percentage of cache occupancy
system.cpu.icache.tags.occ_task_id_blocks::1024         2477                       # Occupied blocks per task id
system.cpu.icache.tags.age_task_id_blocks_1024::0           84                       # Occupied blocks per task id
system.cpu.icache.tags.age_task_id_blocks_1024::1          232                       # Occupied blocks per task id
system.cpu.icache.tags.age_task_id_blocks_1024::2         1159                       # Occupied blocks per task id
system.cpu.icache.tags.age_task_id_blocks_1024::3         1002                       # Occupied blocks per task id
system.cpu.icache.tags.occ_task_id_percent::1024     0.604736                       # Percentage of cache occupancy per task id
system.cpu.icache.tags.tag_accesses           2574628                       # Number of tag accesses
system.cpu.icache.tags.data_accesses          2574628                       # Number of data accesses
system.cpu.icache.tags.power_state.pwrStateResidencyTicks::UNDEFINED   1468152500                       # Cumulative time (in ticks) in various power states
system.cpu.interrupts.clk_domain.clock           8000                       # Clock period in ticks
system.cpu.itb.rdAccesses                           0                       # TLB accesses on read requests
system.cpu.itb.wrAccesses                      643074                       # TLB accesses on write requests
system.cpu.itb.rdMisses                             0                       # TLB misses on read requests
system.cpu.itb.wrMisses                           262                       # TLB misses on write requests
system.cpu.itb.walker.power_state.pwrStateResidencyTicks::UNDEFINED   1468152500                       # Cumulative time (in ticks) in various power states
system.cpu.itb_walker_cache.blocked_cycles::no_mshrs            0                       # number of cycles access was blocked
system.cpu.itb_walker_cache.blocked_cycles::no_targets            0                       # number of cycles access was blocked
system.cpu.itb_walker_cache.blocked::no_mshrs            0                       # number of cycles access was blocked
system.cpu.itb_walker_cache.blocked::no_targets            0                       # number of cycles access was blocked
system.cpu.itb_walker_cache.avg_blocked_cycles::no_mshrs          nan                       # average number of cycles each access was blocked
system.cpu.itb_walker_cache.avg_blocked_cycles::no_targets          nan                       # average number of cycles each access was blocked
system.cpu.itb_walker_cache.replacements            0                       # number of replacements
system.cpu.itb_walker_cache.power_state.pwrStateResidencyTicks::UNDEFINED   1468152500                       # Cumulative time (in ticks) in various power states
system.cpu.itb_walker_cache.tags.tagsinuse            0                       # Cycle average of tags in use
system.cpu.itb_walker_cache.tags.total_refs            0                       # Total number of references to valid blocks.
system.cpu.itb_walker_cache.tags.sampled_refs            0                       # Sample count of references to valid blocks.
system.cpu.itb_walker_cache.tags.avg_refs          nan                       # Average number of references to valid blocks.
system.cpu.itb_walker_cache.tags.warmup_cycle            0                       # Cycle when the warmup percentage was hit.
system.cpu.itb_walker_cache.tags.tag_accesses            0                       # Number of tag accesses
system.cpu.itb_walker_cache.tags.data_accesses            0                       # Number of data accesses
system.cpu.itb_walker_cache.tags.power_state.pwrStateResidencyTicks::UNDEFINED   1468152500                       # Cumulative time (in ticks) in various power states
system.cpu.power_state.pwrStateResidencyTicks::ON   1468152500                       # Cumulative time (in ticks) in various power states
system.cpu.thread_0.numInsts                        0                       # Number of Instructions committed
system.cpu.thread_0.numOps                          0                       # Number of Ops committed
system.cpu.thread_0.numMemRefs                      0                       # Number of Memory References
system.cpu_clk_domain.clock                       500                       # Clock period in ticks
system.cpu_voltage_domain.voltage                   1                       # Voltage in Volts
system.l2.demand_hits::.cpu.inst                    1                       # number of demand (read+write) hits
system.l2.demand_hits::.cpu.data                  102                       # number of demand (read+write) hits
system.l2.demand_hits::total                      103                       # number of demand (read+write) hits
system.l2.overall_hits::.cpu.inst                   1                       # number of overall hits
system.l2.overall_hits::.cpu.data                 102                       # number of overall hits
system.l2.overall_hits::total                     103                       # number of overall hits
system.l2.demand_misses::.cpu.inst               2643                       # number of demand (read+write) misses
system.l2.demand_misses::.cpu.data               5293                       # number of demand (read+write) misses
system.l2.demand_misses::total                   7936                       # number of demand (read+write) misses
system.l2.overall_misses::.cpu.inst              2643                       # number of overall misses
system.l2.overall_misses::.cpu.data              5293                       # number of overall misses
system.l2.overall_misses::total                  7936                       # number of overall misses
system.l2.demand_miss_latency::.cpu.inst    197443500                       # number of demand (read+write) miss cycles
system.l2.demand_miss_latency::.cpu.data    398930000                       # number of demand (read+write) miss cycles
system.l2.demand_miss_latency::total        596373500                       # number of demand (read+write) miss cycles
system.l2.overall_miss_latency::.cpu.inst    197443500                       # number of overall miss cycles
system.l2.overall_miss_latency::.cpu.data    398930000                       # number of overall miss cycles
system.l2.overall_miss_latency::total       596373500                       # number of overall miss cycles
system.l2.demand_accesses::.cpu.inst             2644                       # number of demand (read+write) accesses
system.l2.demand_accesses::.cpu.data             5395                       # number of demand (read+write) accesses
system.l2.demand_accesses::total                 8039                       # number of demand (read+write) accesses
system.l2.overall_accesses::.cpu.inst            2644                       # number of overall (read+write) accesses
system.l2.overall_accesses::.cpu.data            5395                       # number of overall (read+write) accesses
system.l2.overall_accesses::total                8039                       # number of overall (read+write) accesses
system.l2.demand_miss_rate::.cpu.inst        0.999622                       # miss rate for demand accesses
system.l2.demand_miss_rate::.cpu.data        0.981094                       # miss rate for demand accesses
system.l2.demand_miss_rate::total            0.987187                       # miss rate for demand accesses
system.l2.overall_miss_rate::.cpu.inst       0.999622                       # miss rate for overall accesses
system.l2.overall_miss_rate::.cpu.data       0.981094                       # miss rate for overall accesses
system.l2.overall_miss_rate::total           0.987187                       # miss rate for overall accesses
system.l2.demand_avg_miss_latency::.cpu.inst 74704.313280                       # average overall miss latency
system.l2.demand_avg_miss_latency::.cpu.data 75369.355753                       # average overall miss latency
system.l2.demand_avg_miss_latency::total 75147.870464                       # average overall miss latency
system.l2.overall_avg_miss_latency::.cpu.inst 74704.313280                       # average overall miss latency
system.l2.overall_avg_miss_latency::.cpu.data 75369.355753                       # average overall miss latency
system.l2.overall_avg_miss_latency::total 75147.870464                       # average overall miss latency
system.l2.blocked_cycles::no_mshrs                  0                       # number of cycles access was blocked
system.l2.blocked_cycles::no_targets                0                       # number of cycles access was blocked
system.l2.blocked::no_mshrs                         0                       # number of cycles access was blocked
system.l2.blocked::no_targets                       0                       # number of cycles access was blocked
system.l2.avg_blocked_cycles::no_mshrs            nan                       # average number of cycles each access was blocked
system.l2.avg_blocked_cycles::no_targets          nan                       # average number of cycles each access was blocked
system.l2.writebacks::.writebacks                 163                       # number of writebacks
system.l2.writebacks::total                       163                       # number of writebacks
system.l2.demand_mshr_misses::.cpu.inst          2643                       # number of demand (read+write) MSHR misses
system.l2.demand_mshr_misses::.cpu.data          5293                       # number of demand (read+write) MSHR misses
system.l2.demand_mshr_misses::total              7936                       # number of demand (read+write) MSHR misses
system.l2.overall_mshr_misses::.cpu.inst         2643                       # number of overall MSHR misses
system.l2.overall_mshr_misses::.cpu.data         5293                       # number of overall MSHR misses
system.l2.overall_mshr_misses::total             7936                       # number of overall MSHR misses
system.l2.demand_mshr_miss_latency::.cpu.inst    171013500                       # number of demand (read+write) MSHR miss cycles
system.l2.demand_mshr_miss_latency::.cpu.data    346000000                       # number of demand (read+write) MSHR miss cycles
system.l2.demand_mshr_miss_latency::total    517013500                       # number of demand (read+write) MSHR miss cycles
system.l2.overall_mshr_miss_latency::.cpu.inst    171013500                       # number of overall MSHR miss cycles
system.l2.overall_mshr_miss_latency::.cpu.data    346000000                       # number of overall MSHR miss cycles
system.l2.overall_mshr_miss_latency::total    517013500                       # number of overall MSHR miss cycles
system.l2.demand_mshr_miss_rate::.cpu.inst     0.999622                       # mshr miss rate for demand accesses
system.l2.demand_mshr_miss_rate::.cpu.data     0.981094                       # mshr miss rate for demand accesses
system.l2.demand_mshr_miss_rate::total       0.987187                       # mshr miss rate for demand accesses
system.l2.overall_mshr_miss_rate::.cpu.inst     0.999622                       # mshr miss rate for overall accesses
system.l2.overall_mshr_miss_rate::.cpu.data     0.981094                       # mshr miss rate for overall accesses
system.l2.overall_mshr_miss_rate::total      0.987187                       # mshr miss rate for overall accesses
system.l2.demand_avg_mshr_miss_latency::.cpu.inst 64704.313280                       # average overall mshr miss latency
system.l2.demand_avg_mshr_miss_latency::.cpu.data 65369.355753                       # average overall mshr miss latency
system.l2.demand_avg_mshr_miss_latency::total 65147.870464                       # average overall mshr miss latency
system.l2.overall_avg_mshr_miss_latency::.cpu.inst 64704.313280                       # average overall mshr miss latency
system.l2.overall_avg_mshr_miss_latency::.cpu.data 65369.355753                       # average overall mshr miss latency
system.l2.overall_avg_mshr_miss_latency::total 65147.870464                       # average overall mshr miss latency
system.l2.replacements                           4559                       # number of replacements
system.l2.WritebackDirty_hits::.writebacks          557                       # number of WritebackDirty hits
system.l2.WritebackDirty_hits::total              557                       # number of WritebackDirty hits
system.l2.WritebackDirty_accesses::.writebacks          557                       # number of WritebackDirty accesses(hits+misses)
system.l2.WritebackDirty_accesses::total          557                       # number of WritebackDirty accesses(hits+misses)
system.l2.WritebackClean_hits::.writebacks          167                       # number of WritebackClean hits
system.l2.WritebackClean_hits::total              167                       # number of WritebackClean hits
system.l2.WritebackClean_accesses::.writebacks          167                       # number of WritebackClean accesses(hits+misses)
system.l2.WritebackClean_accesses::total          167                       # number of WritebackClean accesses(hits+misses)
system.l2.CleanEvict_mshr_misses::.writebacks          864                       # number of CleanEvict MSHR misses
system.l2.CleanEvict_mshr_misses::total           864                       # number of CleanEvict MSHR misses
system.l2.CleanEvict_mshr_miss_rate::.writebacks          inf                       # mshr miss rate for CleanEvict accesses
system.l2.CleanEvict_mshr_miss_rate::total          inf                       # mshr miss rate for CleanEvict accesses
system.l2.ReadExReq_hits::.cpu.data                12                       # number of ReadExReq hits
system.l2.ReadExReq_hits::total                    12                       # number of ReadExReq hits
system.l2.ReadExReq_misses::.cpu.data            1126                       # number of ReadExReq misses
system.l2.ReadExReq_misses::total                1126                       # number of ReadExReq misses
system.l2.ReadExReq_miss_latency::.cpu.data     84070500                       # number of ReadExReq miss cycles
system.l2.ReadExReq_miss_latency::total      84070500                       # number of ReadExReq miss cycles
system.l2.ReadExReq_accesses::.cpu.data          1138                       # number of ReadExReq accesses(hits+misses)
system.l2.ReadExReq_accesses::total              1138                       # number of ReadExReq accesses(hits+misses)
system.l2.ReadExReq_miss_rate::.cpu.data     0.989455                       # miss rate for ReadExReq accesses
system.l2.ReadExReq_miss_rate::total         0.989455                       # miss rate for ReadExReq accesses
system.l2.ReadExReq_avg_miss_latency::.cpu.data 74662.966252                       # average ReadExReq miss latency
system.l2.ReadExReq_avg_miss_latency::total 74662.966252                       # average ReadExReq miss latency
system.l2.ReadExReq_mshr_misses::.cpu.data         1126                       # number of ReadExReq MSHR misses
system.l2.ReadExReq_mshr_misses::total           1126                       # number of ReadExReq MSHR misses
system.l2.ReadExReq_mshr_miss_latency::.cpu.data     72810500                       # number of ReadExReq MSHR miss cycles
system.l2.ReadExReq_mshr_miss_latency::total     72810500                       # number of ReadExReq MSHR miss cycles
system.l2.ReadExReq_mshr_miss_rate::.cpu.data     0.989455                       # mshr miss rate for ReadExReq accesses
system.l2.ReadExReq_mshr_miss_rate::total     0.989455                       # mshr miss rate for ReadExReq accesses
system.l2.ReadExReq_avg_mshr_miss_latency::.cpu.data 64662.966252                       # average ReadExReq mshr miss latency
system.l2.ReadExReq_avg_mshr_miss_latency::total 64662.966252                       # average ReadExReq mshr miss latency
system.l2.ReadCleanReq_hits::.cpu.inst              1                       # number of ReadCleanReq hits
system.l2.ReadCleanReq_hits::total                  1                       # number of ReadCleanReq hits
system.l2.ReadCleanReq_misses::.cpu.inst         2643                       # number of ReadCleanReq misses
system.l2.ReadCleanReq_misses::total             2643                       # number of ReadCleanReq misses
system.l2.ReadCleanReq_miss_latency::.cpu.inst    197443500                       # number of ReadCleanReq miss cycles
system.l2.ReadCleanReq_miss_latency::total    197443500                       # number of ReadCleanReq miss cycles
system.l2.ReadCleanReq_accesses::.cpu.inst         2644                       # number of ReadCleanReq accesses(hits+misses)
system.l2.ReadCleanReq_accesses::total           2644                       # number of ReadCleanReq accesses(hits+misses)
system.l2.ReadCleanReq_miss_rate::.cpu.inst     0.999622                       # miss rate for ReadCleanReq accesses
system.l2.ReadCleanReq_miss_rate::total      0.999622                       # miss rate for ReadCleanReq accesses
system.l2.ReadCleanReq_avg_miss_latency::.cpu.inst 74704.313280                       # average ReadCleanReq miss latency
system.l2.ReadCleanReq_avg_miss_latency::total 74704.313280                       # average ReadCleanReq miss latency
system.l2.ReadCleanReq_mshr_misses::.cpu.inst         2643                       # number of ReadCleanReq MSHR misses
system.l2.ReadCleanReq_mshr_misses::total         2643                       # number of ReadCleanReq MSHR misses
system.l2.ReadCleanReq_mshr_miss_latency::.cpu.inst    171013500                       # number of ReadCleanReq MSHR miss cycles
system.l2.ReadCleanReq_mshr_miss_latency::total    171013500                       # number of ReadCleanReq MSHR miss cycles
system.l2.ReadCleanReq_mshr_miss_rate::.cpu.inst     0.999622                       # mshr miss rate for ReadCleanReq accesses
system.l2.ReadCleanReq_mshr_miss_rate::total     0.999622                       # mshr miss rate for ReadCleanReq accesses
system.l2.ReadCleanReq_avg_mshr_miss_latency::.cpu.inst 64704.313280                       # average ReadCleanReq mshr miss latency
system.l2.ReadCleanReq_avg_mshr_miss_latency::total 64704.313280                       # average ReadCleanReq mshr miss latency
system.l2.ReadSharedReq_hits::.cpu.data            90                       # number of ReadSharedReq hits
system.l2.ReadSharedReq_hits::total                90                       # number of ReadSharedReq hits
system.l2.ReadSharedReq_misses::.cpu.data         4167                       # number of ReadSharedReq misses
system.l2.ReadSharedReq_misses::total            4167                       # number of ReadSharedReq misses
system.l2.ReadSharedReq_miss_latency::.cpu.data    314859500                       # number of ReadSharedReq miss cycles
system.l2.ReadSharedReq_miss_latency::total    314859500                       # number of ReadSharedReq miss cycles
system.l2.ReadSharedReq_accesses::.cpu.data         4257                       # number of ReadSharedReq accesses(hits+misses)
system.l2.ReadSharedReq_accesses::total          4257                       # number of ReadSharedReq accesses(hits+misses)
system.l2.ReadSharedReq_miss_rate::.cpu.data     0.978858                       # miss rate for ReadSharedReq accesses
system.l2.ReadSharedReq_miss_rate::total     0.978858                       # miss rate for ReadSharedReq accesses
system.l2.ReadSharedReq_avg_miss_latency::.cpu.data 75560.235181                       # average ReadSharedReq miss latency
system.l2.ReadSharedReq_avg_miss_latency::total 75560.235181                       # average ReadSharedReq miss latency
system.l2.ReadSharedReq_mshr_misses::.cpu.data         4167                       # number of ReadSharedReq MSHR misses
system.l2.ReadSharedReq_mshr_misses::total         4167                       # number of ReadSharedReq MSHR misses
system.l2.ReadSharedReq_mshr_miss_latency::.cpu.data    273189500                       # number of ReadSharedReq MSHR miss cycles
system.l2.ReadSharedReq_mshr_miss_latency::total    273189500                       # number of ReadSharedReq MSHR miss cycles
system.l2.ReadSharedReq_mshr_miss_rate::.cpu.data     0.978858                       # mshr miss rate for ReadSharedReq accesses
system.l2.ReadSharedReq_mshr_miss_rate::total     0.978858                       # mshr miss rate for ReadSharedReq accesses
system.l2.ReadSharedReq_avg_mshr_miss_latency::.cpu.data 65560.235181                       # average ReadSharedReq mshr miss latency
system.l2.ReadSharedReq_avg_mshr_miss_latency::total 65560.235181                       # average ReadSharedReq mshr miss latency
system.l2.power_state.pwrStateResidencyTicks::UNDEFINED   1468152500                       # Cumulative time (in ticks) in various power states
system.l2.tags.tagsinuse                  3276.329896                       # Cycle average of tags in use
system.l2.tags.total_refs                        8853                       # Total number of references to valid blocks.
system.l2.tags.sampled_refs                      8599                       # Sample count of references to valid blocks.
system.l2.tags.avg_refs                      1.029538                       # Average number of references to valid blocks.
system.l2.tags.warmup_cycle                     77000                       # Cycle when the warmup percentage was hit.
system.l2.tags.occ_blocks::.writebacks     233.109156                       # Average occupied blocks per requestor
system.l2.tags.occ_blocks::.cpu.inst       830.720479                       # Average occupied blocks per requestor
system.l2.tags.occ_blocks::.cpu.data      2212.500262                       # Average occupied blocks per requestor
system.l2.tags.occ_percent::.writebacks      0.056911                       # Average percentage of cache occupancy
system.l2.tags.occ_percent::.cpu.inst        0.202813                       # Average percentage of cache occupancy
system.l2.tags.occ_percent::.cpu.data        0.540161                       # Average percentage of cache occupancy
system.l2.tags.occ_percent::total            0.799885                       # Average percentage of cache occupancy
system.l2.tags.occ_task_id_blocks::1024          4040                       # Occupied blocks per task id
system.l2.tags.age_task_id_blocks_1024::0          126                       # Occupied blocks per task id
system.l2.tags.age_task_id_blocks_1024::1          300                       # Occupied blocks per task id
system.l2.tags.age_task_id_blocks_1024::2         2769                       # Occupied blocks per task id
system.l2.tags.age_task_id_blocks_1024::3          845                       # Occupied blocks per task id
system.l2.tags.occ_task_id_percent::1024     0.986328                       # Percentage of cache occupancy per task id
system.l2.tags.tag_accesses                     28033                       # Number of tag accesses
system.l2.tags.data_accesses                    28033                       # Number of data accesses
system.l2.tags.power_state.pwrStateResidencyTicks::UNDEFINED   1468152500                       # Cumulative time (in ticks) in various power states
system.mem_ctrls.avgPriority_.writebacks::samples       132.00                       # Average QoS priority value for accepted requests
system.mem_ctrls.avgPriority_.cpu.inst::samples      2643.00                       # Average QoS priority value for accepted requests
system.mem_ctrls.avgPriority_.cpu.data::samples      5288.00                       # Average QoS priority value for accepted requests
system.mem_ctrls.priorityMinLatency      0.000000018750                       # per QoS priority minimum request to response latency (s)
system.mem_ctrls.priorityMaxLatency      0.001139994500                       # per QoS priority maximum request to response latency (s)
system.mem_ctrls.numReadWriteTurnArounds            7                       # Number of turnarounds from READ to WRITE
system.mem_ctrls.numWriteReadTurnArounds            7                       # Number of turnarounds from WRITE to READ
system.mem_ctrls.numStayReadState               16395                       # Number of times bus staying in READ state
system.mem_ctrls.numStayWriteState                107                       # Number of times bus staying in WRITE state
system.mem_ctrls.readReqs                        7936                       # Number of read requests accepted
system.mem_ctrls.writeReqs                        163                       # Number of write requests accepted
system.mem_ctrls.readBursts                      7936                       # Number of controller read bursts, including those serviced by the write queue
system.mem_ctrls.writeBursts                      163                       # Number of controller write bursts, including those merged in the write queue
system.mem_ctrls.servicedByWrQ                      5                       # Number of controller read bursts serviced by the write queue
system.mem_ctrls.mergedWrBursts                    31                       # Number of controller write bursts merged with an existing one
system.mem_ctrls.neitherReadNorWriteReqs            0                       # Number of requests that are neither read nor write
system.mem_ctrls.avgRdQLen                       1.00                       # Average read queue length when enqueuing
system.mem_ctrls.avgWrQLen                      12.93                       # Average write queue length when enqueuing
system.mem_ctrls.numRdRetry                         0                       # Number of times read queue was full causing retry
system.mem_ctrls.numWrRetry                         0                       # Number of times write queue was full causing retry
system.mem_ctrls.readPktSize::0                     0                       # Read request sizes (log2)
system.mem_ctrls.readPktSize::1                     0                       # Read request sizes (log2)
system.mem_ctrls.readPktSize::2                     0                       # Read request sizes (log2)
system.mem_ctrls.readPktSize::3                     0                       # Read request sizes (log2)
system.mem_ctrls.readPktSize::4                     0                       # Read request sizes (log2)
system.mem_ctrls.readPktSize::5                  7936                       # Read request sizes (log2)
system.mem_ctrls.writePktSize::0                    0                       # Write request sizes (log2)
system.mem_ctrls.writePktSize::1                    0                       # Write request sizes (log2)
system.mem_ctrls.writePktSize::2                    0                       # Write request sizes (log2)
system.mem_ctrls.writePktSize::3                    0                       # Write request sizes (log2)
system.mem_ctrls.writePktSize::4                    0                       # Write request sizes (log2)
system.mem_ctrls.writePktSize::5                  163                       # Write request sizes (log2)
system.mem_ctrls.rdQLenPdf::0                    7929                       # What read queue length does an incoming req see
system.mem_ctrls.rdQLenPdf::1                       2                       # What read queue length does an incoming req see
system.mem_ctrls.rdQLenPdf::2                       0                       # What read queue length does an incoming req see
system.mem_ctrls.rdQLenPdf::3                       0                       # What read queue length does an incoming req see
system.mem_ctrls.rdQLenPdf::4                       0                       # What read queue length does an incoming req see
system.mem_ctrls.rdQLenPdf::5                       0                       # What read queue length does an incoming req see
system.mem_ctrls.rdQLenPdf::6                       0                       # What read queue length does an incoming req see
system.mem_ctrls.rdQLenPdf::7                       0                       # What read queue length does an incoming req see
system.mem_ctrls.rdQLenPdf::8                       0                       # What read queue length does an incoming req see
system.mem_ctrls.rdQLenPdf::9                       0                       # What read queue length does an incoming req see
system.mem_ctrls.rdQLenPdf::10                      0                       # What read queue length does an incoming req see
system.mem_ctrls.rdQLenPdf::11                      0                       # What read queue length does an incoming req see
system.mem_ctrls.rdQLenPdf::12                      0                       # What read queue length does an incoming req see
system.mem_ctrls.rdQLenPdf::13                      0                       # What read queue length does an incoming req see
system.mem_ctrls.rdQLenPdf::14                      0                       # What read queue length does an incoming req see
system.mem_ctrls.rdQLenPdf::15                      0                       # What read queue length does an incoming req see
system.mem_ctrls.rdQLenPdf::16                      0                       # What read queue length does an incoming req see
system.mem_ctrls.rdQLenPdf::17                      0                       # What read queue length does an incoming req see
system.mem_ctrls.rdQLenPdf::18                      0                       # What read queue length does an incoming req see
system.mem_ctrls.rdQLenPdf::19                      0                       # What read queue length does an incoming req see
system.mem_ctrls.rdQLenPdf::20                      0                       # What read queue length does an incoming req see
system.mem_ctrls.rdQLenPdf::21                      0                       # What read queue length does an incoming req see
system.mem_ctrls.rdQLenPdf::22                      0                       # What read queue length does an incoming req see
system.mem_ctrls.rdQLenPdf::23                      0                       # What read queue length does an incoming req see
system.mem_ctrls.rdQLenPdf::24                      0                       # What read queue length does an incoming req see
system.mem_ctrls.rdQLenPdf::25                      0                       # What read queue length does an incoming req see
system.mem_ctrls.rdQLenPdf::26                      0                       # What read queue length does an incoming req see
system.mem_ctrls.rdQLenPdf::27                      0                       # What read queue length does an incoming req see
system.mem_ctrls.rdQLenPdf::28                      0                       # What read queue length does an incoming req see
system.mem_ctrls.rdQLenPdf::29                      0                       # What read queue length does an incoming req see
system.mem_ctrls.rdQLenPdf::30                      0                       # What read queue length does an incoming req see
system.mem_ctrls.rdQLenPdf::31                      0                       # What read queue length does an incoming req see
system.mem_ctrls.wrQLenPdf::0                       1                       # What write queue length does an incoming req see
system.mem_ctrls.wrQLenPdf::1                       1                       # What write queue length does an incoming req see
system.mem_ctrls.wrQLenPdf::2                       1                       # What write queue length does an incoming req see
system.mem_ctrls.wrQLenPdf::3                       1                       # What write queue length does an incoming req see
system.mem_ctrls.wrQLenPdf::4                       1                       # What write queue length does an incoming req see
system.mem_ctrls.wrQLenPdf::5                       1                       # What write queue length does an incoming req see
system.mem_ctrls.wrQLenPdf::6                       1                       # What write queue length does an incoming req see
system.mem_ctrls.wrQLenPdf::7                       1                       # What write queue length does an incoming req see
system.mem_ctrls.wrQLenPdf::8                       1                       # What write queue length does an incoming req see
system.mem_ctrls.wrQLenPdf::9                       1                       # What write queue length does an incoming req see
system.mem_ctrls.wrQLenPdf::10                      1                       # What write queue length does an incoming req see
system.mem_ctrls.wrQLenPdf::11                      1                       # What write queue length does an incoming req see
system.mem_ctrls.wrQLenPdf::12                      1                       # What write queue length does an incoming req see
system.mem_ctrls.wrQLenPdf::13                      1                       # What write queue length does an incoming req see
system.mem_ctrls.wrQLenPdf::14                      1                       # What write queue length does an incoming req see
system.mem_ctrls.wrQLenPdf::15                      2                       # What write queue length does an incoming req see
system.mem_ctrls.wrQLenPdf::16                      2                       # What write queue length does an incoming req see
system.mem_ctrls.wrQLenPdf::17                      8                       # What write queue length does an incoming req see
system.mem_ctrls.wrQLenPdf::18                      7                       # What write queue length does an incoming req see
system.mem_ctrls.wrQLenPdf::19                      7                       # What write queue length does an incoming req see
system.mem_ctrls.wrQLenPdf::20                      7                       # What write queue length does an incoming req see
system.mem_ctrls.wrQLenPdf::21                      7                       # What write queue length does an incoming req see
system.mem_ctrls.wrQLenPdf::22                      7                       # What write queue length does an incoming req see
system.mem_ctrls.wrQLenPdf::23                      7                       # What write queue length does an incoming req see
system.mem_ctrls.wrQLenPdf::24                      7                       # What write queue length does an incoming req see
system.mem_ctrls.wrQLenPdf::25                      7                       # What write queue length does an incoming req see
system.mem_ctrls.wrQLenPdf::26                      7                       # What write queue length does an incoming req see
system.mem_ctrls.wrQLenPdf::27                      7                       # What write queue length does an incoming req see
system.mem_ctrls.wrQLenPdf::28                      7                       # What write queue length does an incoming req see
system.mem_ctrls.wrQLenPdf::29                      7                       # What write queue length does an incoming req see
system.mem_ctrls.wrQLenPdf::30                      7                       # What write queue length does an incoming req see
system.mem_ctrls.wrQLenPdf::31                      7                       # What write queue length does an incoming req see
system.mem_ctrls.wrQLenPdf::32                      7                       # What write queue length does an incoming req see
system.mem_ctrls.wrQLenPdf::33                      0                       # What write queue length does an incoming req see
system.mem_ctrls.wrQLenPdf::34                      0                       # What write queue length does an incoming req see
system.mem_ctrls.wrQLenPdf::35                      0                       # What write queue length does an incoming req see
system.mem_ctrls.wrQLenPdf::36                      0                       # What write queue length does an incoming req see
system.mem_ctrls.wrQLenPdf::37                      0                       # What write queue length does an incoming req see
system.mem_ctrls.wrQLenPdf::38                      0                       # What write queue length does an incoming req see
system.mem_ctrls.wrQLenPdf::39                      0                       # What write queue length does an incoming req see
system.mem_ctrls.wrQLenPdf::40                      0                       # What write queue length does an incoming req see
system.mem_ctrls.wrQLenPdf::41                      0                       # What write queue length does an incoming req see
system.mem_ctrls.wrQLenPdf::42                      0                       # What write queue length does an incoming req see
system.mem_ctrls.wrQLenPdf::43                      0                       # What write queue length does an incoming req see
system.mem_ctrls.wrQLenPdf::44                      0                       # What write queue length does an incoming req see
system.mem_ctrls.wrQLenPdf::45                      0                       # What write queue length does an incoming req see
system.mem_ctrls.wrQLenPdf::46                      0                       # What write queue length does an incoming req see
system.mem_ctrls.wrQLenPdf::47                      0                       # What write queue length does an incoming req see
system.mem_ctrls.wrQLenPdf::48                      0                       # What write queue length does an incoming req see
system.mem_ctrls.wrQLenPdf::49                      0                       # What write queue length does an incoming req see
system.mem_ctrls.wrQLenPdf::50                      0                       # What write queue length does an incoming req see
system.mem_ctrls.wrQLenPdf::51                      0                       # What write queue length does an incoming req see
system.mem_ctrls.wrQLenPdf::52                      0                       # What write queue length does an incoming req see
system.mem_ctrls.wrQLenPdf::53                      0                       # What write queue length does an incoming req see
system.mem_ctrls.wrQLenPdf::54                      0                       # What write queue length does an incoming req see
system.mem_ctrls.wrQLenPdf::55                      0                       # What write queue length does an incoming req see
system.mem_ctrls.wrQLenPdf::56                      0                       # What write queue length does an incoming req see
system.mem_ctrls.wrQLenPdf::57                      0                       # What write queue length does an incoming req see
system.mem_ctrls.wrQLenPdf::58                      0                       # What write queue length does an incoming req see
system.mem_ctrls.wrQLenPdf::59                      0                       # What write queue length does an incoming req see
system.mem_ctrls.wrQLenPdf::60                      0                       # What write queue length does an incoming req see
system.mem_ctrls.wrQLenPdf::61                      0                       # What write queue length does an incoming req see
system.mem_ctrls.wrQLenPdf::62                      0                       # What write queue length does an incoming req see
system.mem_ctrls.wrQLenPdf::63                      0                       # What write queue length does an incoming req see
system.mem_ctrls.rdPerTurnAround::samples            7                       # Reads before turning the bus around for writes
system.mem_ctrls.rdPerTurnAround::mean           1132                       # Reads before turning the bus around for writes
system.mem_ctrls.rdPerTurnAround::gmean    371.746314                       # Reads before turning the bus around for writes
system.mem_ctrls.rdPerTurnAround::stdev   2294.897238                       # Reads before turning the bus around for writes
system.mem_ctrls.rdPerTurnAround::0-255             5     71.43%     71.43% # Reads before turning the bus around for writes
system.mem_ctrls.rdPerTurnAround::512-767            1     14.29%     85.71% # Reads before turning the bus around for writes
system.mem_ctrls.rdPerTurnAround::6144-6399            1     14.29%    100.00% # Reads before turning the bus around for writes
system.mem_ctrls.rdPerTurnAround::total             7                       # Reads before turning the bus around for writes
system.mem_ctrls.wrPerTurnAround::samples            7                       # Writes before turning the bus around for reads
system.mem_ctrls.wrPerTurnAround::mean      16.285714                       # Writes before turning the bus around for reads
system.mem_ctrls.wrPerTurnAround::gmean     16.271496                       # Writes before turning the bus around for reads
system.mem_ctrls.wrPerTurnAround::stdev      0.755929                       # Writes before turning the bus around for reads
system.mem_ctrls.wrPerTurnAround::16                6     85.71%     85.71% # Writes before turning the bus around for reads
system.mem_ctrls.wrPerTurnAround::18                1     14.29%    100.00% # Writes before turning the bus around for reads
system.mem_ctrls.wrPerTurnAround::total             7                       # Writes before turning the bus around for reads
system.mem_ctrls.bytesReadWrQ                     320                       # Total number of bytes read from write queue
system.mem_ctrls.bytesReadSys                  253952                       # Total read bytes from the system interface side
system.mem_ctrls.bytesWrittenSys                 5216                       # Total written bytes from the system interface side
system.mem_ctrls.avgRdBWSys                    172.97                       # Average system read bandwidth in MiByte/s
system.mem_ctrls.avgWrBWSys                      3.55                       # Average system write bandwidth in MiByte/s
system.mem_ctrls.totGap                    1468078500                       # Total gap between requests
system.mem_ctrls.avgGap                     181266.64                       # Average gap between requests
system.mem_ctrls.requestorReadBytes::.cpu.inst        84576                       # Per-requestor bytes read from memory
system.mem_ctrls.requestorReadBytes::.cpu.data       169216                       # Per-requestor bytes read from memory
system.mem_ctrls.requestorWriteBytes::.writebacks         3648                       # Per-requestor bytes write to memory
system.mem_ctrls.requestorReadRate::.cpu.inst 57607094.630837053061                       # Per-requestor bytes read from memory rate (Bytes/sec)
system.mem_ctrls.requestorReadRate::.cpu.data 115257781.463437885046                       # Per-requestor bytes read from memory rate (Bytes/sec)
system.mem_ctrls.requestorWriteRate::.writebacks 2484755.500535537023                       # Per-requestor bytes write to memory rate (Bytes/sec)
[...]
system.mem_ctrls.dram.bw_total::.cpu.data    115366762                       # Total bandwidth to/from this memory (bytes/s)
system.mem_ctrls.dram.bw_total::total       176526621                       # Total bandwidth to/from this memory (bytes/s)
system.mem_ctrls.dram.readBursts                 7931                       # Number of DRAM read bursts
system.mem_ctrls.dram.writeBursts                 114                       # Number of DRAM write bursts
system.mem_ctrls.dram.perBankRdBursts::0          603                       # Per bank write bursts
system.mem_ctrls.dram.perBankRdBursts::1          423                       # Per bank write bursts
system.mem_ctrls.dram.perBankRdBursts::2          424                       # Per bank write bursts
system.mem_ctrls.dram.perBankRdBursts::3          556                       # Per bank write bursts
system.mem_ctrls.dram.perBankRdBursts::4          509                       # Per bank write bursts
system.mem_ctrls.dram.perBankRdBursts::5          396                       # Per bank write bursts
system.mem_ctrls.dram.perBankRdBursts::6          481                       # Per bank write bursts
system.mem_ctrls.dram.perBankRdBursts::7          324                       # Per bank write bursts
system.mem_ctrls.dram.perBankRdBursts::8          429                       # Per bank write bursts
system.mem_ctrls.dram.perBankRdBursts::9          774                       # Per bank write bursts
system.mem_ctrls.dram.perBankRdBursts::10          702                       # Per bank write bursts
system.mem_ctrls.dram.perBankRdBursts::11          596                       # Per bank write bursts
system.mem_ctrls.dram.perBankRdBursts::12          472                       # Per bank write bursts
system.mem_ctrls.dram.perBankRdBursts::13          366                       # Per bank write bursts
system.mem_ctrls.dram.perBankRdBursts::14          264                       # Per bank write bursts
system.mem_ctrls.dram.perBankRdBursts::15          612                       # Per bank write bursts
system.mem_ctrls.dram.perBankWrBursts::0            2                       # Per bank write bursts
system.mem_ctrls.dram.perBankWrBursts::1            0                       # Per bank write bursts
system.mem_ctrls.dram.perBankWrBursts::2            0                       # Per bank write bursts
system.mem_ctrls.dram.perBankWrBursts::3            0                       # Per bank write bursts
system.mem_ctrls.dram.perBankWrBursts::4            4                       # Per bank write bursts
system.mem_ctrls.dram.perBankWrBursts::5            0                       # Per bank write bursts
system.mem_ctrls.dram.perBankWrBursts::6            0                       # Per bank write bursts
system.mem_ctrls.dram.perBankWrBursts::7            8                       # Per bank write bursts
system.mem_ctrls.dram.perBankWrBursts::8            9                       # Per bank write bursts
system.mem_ctrls.dram.perBankWrBursts::9           26                       # Per bank write bursts
system.mem_ctrls.dram.perBankWrBursts::10           32                       # Per bank write bursts
system.mem_ctrls.dram.perBankWrBursts::11           15                       # Per bank write bursts
system.mem_ctrls.dram.perBankWrBursts::12            2                       # Per bank write bursts
system.mem_ctrls.dram.perBankWrBursts::13            0                       # Per bank write bursts
system.mem_ctrls.dram.perBankWrBursts::14            0                       # Per bank write bursts
system.mem_ctrls.dram.perBankWrBursts::15           16                       # Per bank write bursts
system.mem_ctrls.dram.totQLat                44569750                       # Total ticks spent queuing
system.mem_ctrls.dram.totBusLat              39655000                       # Total ticks spent in databus transfers
system.mem_ctrls.dram.totMemAccLat          193276000                       # Total ticks spent from burst creation until serviced by the DRAM
system.mem_ctrls.dram.avgQLat                 5619.69                       # Average queueing delay per DRAM burst
system.mem_ctrls.dram.avgBusLat               5000.00                       # Average bus latency per DRAM burst
system.mem_ctrls.dram.avgMemAccLat           24369.69                       # Average memory access latency per DRAM burst
system.mem_ctrls.dram.readRowHits                6651                       # Number of row buffer hits during reads
system.mem_ctrls.dram.writeRowHits                 90                       # Number of row buffer hits during writes
system.mem_ctrls.dram.readRowHitRate            83.86                       # Row buffer hit rate for reads
system.mem_ctrls.dram.writeRowHitRate           78.95                       # Row buffer hit rate for writes
system.mem_ctrls.dram.bytesPerActivate::samples         1297                       # Bytes accessed per row activation
system.mem_ctrls.dram.bytesPerActivate::mean   394.855821                       # Bytes accessed per row activation
system.mem_ctrls.dram.bytesPerActivate::gmean   238.975905                       # Bytes accessed per row activation
system.mem_ctrls.dram.bytesPerActivate::stdev   366.104331                       # Bytes accessed per row activation
system.mem_ctrls.dram.bytesPerActivate::0-127          346     26.68%     26.68% # Bytes accessed per row activation
system.mem_ctrls.dram.bytesPerActivate::128-255          304     23.44%     50.12% # Bytes accessed per row activation
system.mem_ctrls.dram.bytesPerActivate::256-383          154     11.87%     61.99% # Bytes accessed per row activation
system.mem_ctrls.dram.bytesPerActivate::384-511           71      5.47%     67.46% # Bytes accessed per row activation
system.mem_ctrls.dram.bytesPerActivate::512-639           78      6.01%     73.48% # Bytes accessed per row activation
system.mem_ctrls.dram.bytesPerActivate::640-767           34      2.62%     76.10% # Bytes accessed per row activation
system.mem_ctrls.dram.bytesPerActivate::768-895           36      2.78%     78.87% # Bytes accessed per row activation
system.mem_ctrls.dram.bytesPerActivate::896-1023           31      2.39%     81.26% # Bytes accessed per row activation
system.mem_ctrls.dram.bytesPerActivate::1024-1151          243     18.74%    100.00% # Bytes accessed per row activation
system.mem_ctrls.dram.bytesPerActivate::total         1297                       # Bytes accessed per row activation
system.mem_ctrls.dram.bytesRead                507584                       # Total number of bytes read from DRAM
system.mem_ctrls.dram.bytesWritten               7296                       # Total number of bytes written to DRAM
system.mem_ctrls.dram.avgRdBW              345.729752                       # Average DRAM read bandwidth in MiBytes/s
system.mem_ctrls.dram.avgWrBW                4.969511                       # Average DRAM write bandwidth in MiBytes/s
system.mem_ctrls.dram.peakBW                 12800.00                       # Theoretical peak bandwidth in MiByte/s
system.mem_ctrls.dram.busUtil                    2.74                       # Data bus utilization in percentage
system.mem_ctrls.dram.busUtilRead                2.70                       # Data bus utilization in percentage for reads
system.mem_ctrls.dram.busUtilWrite               0.04                       # Data bus utilization in percentage for writes
system.mem_ctrls.dram.pageHitRate               83.79                       # Row buffer hit rate, read and write combined
system.mem_ctrls.dram.power_state.pwrStateResidencyTicks::UNDEFINED   1468152500                       # Cumulative time (in ticks) in various power states
system.mem_ctrls.dram.rank0.actEnergy         4883760                       # Energy for activate commands per rank (pJ)
system.mem_ctrls.dram.rank0.preEnergy         2588190                       # Energy for precharge commands per rank (pJ)
system.mem_ctrls.dram.rank0.readEnergy       26532240                       # Energy for read commands per rank (pJ)
system.mem_ctrls.dram.rank0.writeEnergy         73080                       # Energy for write commands per rank (pJ)
system.mem_ctrls.dram.rank0.refreshEnergy 115552320.000000                       # Energy for refresh commands per rank (pJ)
system.mem_ctrls.dram.rank0.actBackEnergy    372039000                       # Energy for active background per rank (pJ)
system.mem_ctrls.dram.rank0.preBackEnergy    250474560                       # Energy for precharge background per rank (pJ)
system.mem_ctrls.dram.rank0.actPowerDownEnergy            0                       # Energy for active power-down per rank (pJ)
system.mem_ctrls.dram.rank0.prePowerDownEnergy            0                       # Energy for precharge power-down per rank (pJ)
system.mem_ctrls.dram.rank0.selfRefreshEnergy            0                       # Energy for self refresh per rank (pJ)
system.mem_ctrls.dram.rank0.totalEnergy     772143150                       # Total energy per rank (pJ)
system.mem_ctrls.dram.rank0.averagePower   525.928437                       # Core power per rank (mW)
system.mem_ctrls.dram.rank0.totalIdleTime            0                       # Total Idle time Per DRAM Rank
system.mem_ctrls.dram.rank0.pwrStateTime::IDLE    647649250                       # Time in different power states
system.mem_ctrls.dram.rank0.pwrStateTime::REF     48880000                       # Time in different power states
system.mem_ctrls.dram.rank0.pwrStateTime::SREF            0                       # Time in different power states
system.mem_ctrls.dram.rank0.pwrStateTime::PRE_PDN            0                       # Time in different power states
system.mem_ctrls.dram.rank0.pwrStateTime::ACT    771623250                       # Time in different power states
system.mem_ctrls.dram.rank0.pwrStateTime::ACT_PDN            0                       # Time in different power states
system.mem_ctrls.dram.rank1.actEnergy         4426800                       # Energy for activate commands per rank (pJ)
system.mem_ctrls.dram.rank1.preEnergy         2333925                       # Energy for precharge commands per rank (pJ)
system.mem_ctrls.dram.rank1.readEnergy       30095100                       # Energy for read commands per rank (pJ)
system.mem_ctrls.dram.rank1.writeEnergy        522000                       # Energy for write commands per rank (pJ)
system.mem_ctrls.dram.rank1.refreshEnergy 115552320.000000                       # Energy for refresh commands per rank (pJ)
system.mem_ctrls.dram.rank1.actBackEnergy    410655930                       # Energy for active background per rank (pJ)
system.mem_ctrls.dram.rank1.preBackEnergy    217955040                       # Energy for precharge background per rank (pJ)
system.mem_ctrls.dram.rank1.actPowerDownEnergy            0                       # Energy for active power-down per rank (pJ)
system.mem_ctrls.dram.rank1.prePowerDownEnergy            0                       # Energy for precharge power-down per rank (pJ)
system.mem_ctrls.dram.rank1.selfRefreshEnergy            0                       # Energy for self refresh per rank (pJ)
system.mem_ctrls.dram.rank1.totalEnergy     781541115                       # Total energy per rank (pJ)
system.mem_ctrls.dram.rank1.averagePower   532.329656                       # Core power per rank (mW)
system.mem_ctrls.dram.rank1.totalIdleTime            0                       # Total Idle time Per DRAM Rank
system.mem_ctrls.dram.rank1.pwrStateTime::IDLE    562419500                       # Time in different power states
system.mem_ctrls.dram.rank1.pwrStateTime::REF     48880000                       # Time in different power states
system.mem_ctrls.dram.rank1.pwrStateTime::SREF            0                       # Time in different power states
system.mem_ctrls.dram.rank1.pwrStateTime::PRE_PDN            0                       # Time in different power states
system.mem_ctrls.dram.rank1.pwrStateTime::ACT    856853000                       # Time in different power states
system.mem_ctrls.dram.rank1.pwrStateTime::ACT_PDN            0                       # Time in different power states
system.mem_ctrls.power_state.pwrStateResidencyTicks::UNDEFINED   1468152500                       # Cumulative time (in ticks) in various power states
system.membus.trans_dist::ReadResp               6810                       # Transaction distribution
system.membus.trans_dist::WritebackDirty          163                       # Transaction distribution
system.membus.trans_dist::CleanEvict              933                       # Transaction distribution
system.membus.trans_dist::ReadExReq              1126                       # Transaction distribution
system.membus.trans_dist::ReadExResp             1126                       # Transaction distribution
system.membus.trans_dist::ReadSharedReq          6810                       # Transaction distribution
system.membus.pkt_count_system.l2.mem_side_port::system.mem_ctrls.port        16968                       # Packet count per connected requestor and responder (bytes)
system.membus.pkt_count_system.l2.mem_side_port::total        16968                       # Packet count per connected requestor and responder (bytes)
system.membus.pkt_count::total                  16968                       # Packet count per connected requestor and responder (bytes)
system.membus.pkt_size_system.l2.mem_side_port::system.mem_ctrls.port       259168                       # Cumulative packet size per connected requestor and responder (bytes)
system.membus.pkt_size_system.l2.mem_side_port::total       259168                       # Cumulative packet size per connected requestor and responder (bytes)
system.membus.pkt_size::total                  259168                       # Cumulative packet size per connected requestor and responder (bytes)
system.membus.snoops                                0                       # Total snoops (count)
system.membus.snoopTraffic                          0                       # Total snoop traffic (bytes)
system.membus.snoop_fanout::samples              7936                       # Request fanout histogram
system.membus.snoop_fanout::mean                    0                       # Request fanout histogram
system.membus.snoop_fanout::stdev                   0                       # Request fanout histogram
system.membus.snoop_fanout::underflows              0      0.00%      0.00% # Request fanout histogram
system.membus.snoop_fanout::0                    7936    100.00%    100.00% # Request fanout histogram
system.membus.snoop_fanout::1                       0      0.00%    100.00% # Request fanout histogram
system.membus.snoop_fanout::overflows               0      0.00%    100.00% # Request fanout histogram
system.membus.snoop_fanout::min_value               0                       # Request fanout histogram
system.membus.snoop_fanout::max_value               0                       # Request fanout histogram
system.membus.snoop_fanout::total                7936                       # Request fanout histogram
system.membus.power_state.pwrStateResidencyTicks::UNDEFINED   1468152500                       # Cumulative time (in ticks) in various power states
system.membus.reqLayer2.occupancy             9377500                       # Layer occupancy (ticks)
system.membus.reqLayer2.utilization               0.6                       # Layer utilization (%)
system.membus.respLayer1.occupancy           26163000                       # Layer occupancy (ticks)
system.membus.respLayer1.utilization              1.8                       # Layer utilization (%)
system.tol2bus.trans_dist::ReadResp              6901                       # Transaction distribution
system.tol2bus.trans_dist::WritebackDirty          720                       # Transaction distribution
system.tol2bus.trans_dist::WritebackClean          167                       # Transaction distribution
system.tol2bus.trans_dist::CleanEvict            5350                       # Transaction distribution
system.tol2bus.trans_dist::ReadExReq             1138                       # Transaction distribution
system.tol2bus.trans_dist::ReadExResp            1138                       # Transaction distribution
system.tol2bus.trans_dist::ReadCleanReq          2644                       # Transaction distribution
system.tol2bus.trans_dist::ReadSharedReq         4257                       # Transaction distribution
system.tol2bus.pkt_count_system.cpu.icache.mem_side_port::system.l2.cpu_side_port         5455                       # Packet count per connected requestor and responder (bytes)
system.tol2bus.pkt_count_system.cpu.dcache.mem_side_port::system.l2.cpu_side_port        12301                       # Packet count per connected requestor and responder (bytes)
system.tol2bus.pkt_count::total                 17756                       # Packet count per connected requestor and responder (bytes)
system.tol2bus.pkt_size_system.cpu.icache.mem_side_port::system.l2.cpu_side_port        89952                       # Cumulative packet size per connected requestor and responder (bytes)
system.tol2bus.pkt_size_system.cpu.dcache.mem_side_port::system.l2.cpu_side_port       190464                       # Cumulative packet size per connected requestor and responder (bytes)
system.tol2bus.pkt_size::total                 280416                       # Cumulative packet size per connected requestor and responder (bytes)
system.tol2bus.snoops                            4559                       # Total snoops (count)
system.tol2bus.snoopTraffic                      5216                       # Total snoop traffic (bytes)
system.tol2bus.snoop_fanout::samples            12598                       # Request fanout histogram
system.tol2bus.snoop_fanout::mean            0.343467                       # Request fanout histogram
system.tol2bus.snoop_fanout::stdev           0.474885                       # Request fanout histogram
system.tol2bus.snoop_fanout::underflows             0      0.00%      0.00% # Request fanout histogram
system.tol2bus.snoop_fanout::0                   8271     65.65%     65.65% # Request fanout histogram
system.tol2bus.snoop_fanout::1                   4327     34.35%    100.00% # Request fanout histogram
system.tol2bus.snoop_fanout::2                      0      0.00%    100.00% # Request fanout histogram
system.tol2bus.snoop_fanout::3                      0      0.00%    100.00% # Request fanout histogram
system.tol2bus.snoop_fanout::4                      0      0.00%    100.00% # Request fanout histogram
system.tol2bus.snoop_fanout::overflows              0      0.00%    100.00% # Request fanout histogram
system.tol2bus.snoop_fanout::min_value              0                       # Request fanout histogram
system.tol2bus.snoop_fanout::max_value              1                       # Request fanout histogram
system.tol2bus.snoop_fanout::total              12598                       # Request fanout histogram
system.tol2bus.power_state.pwrStateResidencyTicks::UNDEFINED   1468152500                       # Cumulative time (in ticks) in various power states
system.tol2bus.reqLayer0.occupancy            5220500                       # Layer occupancy (ticks)
system.tol2bus.reqLayer0.utilization              0.4                       # Layer utilization (%)
system.tol2bus.respLayer0.occupancy           2644000                       # Layer occupancy (ticks)
system.tol2bus.respLayer0.utilization             0.2                       # Layer utilization (%)
system.tol2bus.respLayer1.occupancy           5395000                       # Layer occupancy (ticks)
system.tol2bus.respLayer1.utilization             0.4                       # Layer utilization (%)
system.voltage_domain.voltage                       1                       # Voltage in Volts

---------- End Simulation Statistics   ----------
