
---------- Begin Simulation Statistics ----------
final_tick                                 1466393500                       # Number of ticks from beginning of simulation (restored from checkpoints and never reset)
host_inst_rate                                 445095                       # Simulator instruction rate (inst/s)
host_mem_usage                                 682376                       # Number of bytes of host memory used
host_op_rate                                   830739                       # Simulator op (including micro ops) rate (op/s)
host_seconds                                     1.06                       # Real time elapsed on the host
host_tick_rate                             1387945355                       # Simulator tick rate (ticks/s)
sim_freq                                 1000000000000                       # Frequency of simulated ticks
sim_insts                                      470192                       # Number of instructions simulated
sim_ops                                        877675                       # Number of ops (including micro ops) simulated
sim_seconds                                  0.001466                       # Number of seconds simulated
sim_ticks                                  1466393500                       # Number of ticks simulated
system.cpu.Branches                             72572                       # Number of branches fetched
system.cpu.committedInsts                      470192                       # Number of instructions committed
system.cpu.committedOps                        877675                       # Number of ops (including micro ops) committed
system.cpu.idle_fraction                     0.000000                       # Percentage of idle cycles
system.cpu.not_idle_fraction                 1.000000                       # Percentage of non-idle cycles
system.cpu.numCycles                          2932787                       # number of cpu cycles simulated
system.cpu.numWorkItemsCompleted                    0                       # number of work items this cpu completed
system.cpu.numWorkItemsStarted                      0                       # number of work items this cpu started
system.cpu.num_busy_cycles               2932786.998000                       # Number of busy cycles
system.cpu.num_cc_register_reads               329747                       # number of times the CC registers were read
system.cpu.num_cc_register_writes              220558                       # number of times the CC registers were written
system.cpu.num_conditional_control_insts        50036                       # number of instructions that are conditional controls
system.cpu.num_fp_alu_accesses                 253735                       # Number of float alu accesses
system.cpu.num_fp_insts                        253735                       # number of float instructions
system.cpu.num_fp_register_reads               239399                       # number of times the floating registers were read
system.cpu.num_fp_register_writes              213269                       # number of times the floating registers were written
system.cpu.num_func_calls                       13686                       # number of times a function call or return occured
system.cpu.num_idle_cycles                   0.002000                       # Number of idle cycles
system.cpu.num_int_alu_accesses                720164                       # Number of integer alu accesses
system.cpu.num_int_insts                       720164                       # number of integer instructions
system.cpu.num_int_register_reads             1479551                       # number of times the integer registers were read
system.cpu.num_int_register_writes             517683                       # number of times the integer registers were written
system.cpu.num_load_insts                      144767                       # Number of load instructions
system.cpu.num_mem_refs                        211967                       # number of memory refs
system.cpu.num_store_insts                      67200                       # Number of store instructions
system.cpu.num_vec_alu_accesses                     0                       # Number of vector alu accesses
system.cpu.num_vec_insts                            0                       # number of vector instructions
system.cpu.num_vec_register_reads                   0                       # number of times the vector registers were read
system.cpu.num_vec_register_writes                  0                       # number of times the vector registers were written
system.cpu.op_class::No_OpClass                 11335      1.29%      1.29% # Class of executed instruction
system.cpu.op_class::IntAlu                    504497     57.47%     58.76% # Class of executed instruction
system.cpu.op_class::IntMult                      123      0.01%     58.78% # Class of executed instruction
system.cpu.op_class::IntDiv                      2125      0.24%     59.02% # Class of executed instruction
system.cpu.op_class::FloatAdd                   69680      7.94%     66.96% # Class of executed instruction
system.cpu.op_class::FloatCmp                       0      0.00%     66.96% # Class of executed instruction
system.cpu.op_class::FloatCvt                      32      0.00%     66.96% # Class of executed instruction
system.cpu.op_class::FloatMult                      0      0.00%     66.96% # Class of executed instruction
system.cpu.op_class::FloatMultAcc                   0      0.00%     66.96% # Class of executed instruction
system.cpu.op_class::FloatDiv                       0      0.00%     66.96% # Class of executed instruction
system.cpu.op_class::FloatMisc                      0      0.00%     66.96% # Class of executed instruction
system.cpu.op_class::FloatSqrt                      0      0.00%     66.96% # Class of executed instruction
system.cpu.op_class::SimdAdd                      554      0.06%     67.02% # Class of executed instruction
system.cpu.op_class::SimdAddAcc                     0      0.00%     67.02% # Class of executed instruction
system.cpu.op_class::SimdAlu                     9039      1.03%     68.05% # Class of executed instruction
system.cpu.op_class::SimdCmp                        0      0.00%     68.05% # Class of executed instruction
system.cpu.op_class::SimdCvt                     1366      0.16%     68.21% # Class of executed instruction
system.cpu.op_class::SimdMisc                   11506      1.31%     69.52% # Class of executed instruction
system.cpu.op_class::SimdMult                       0      0.00%     69.52% # Class of executed instruction
system.cpu.op_class::SimdMultAcc                    0      0.00%     69.52% # Class of executed instruction
system.cpu.op_class::SimdShift                    174      0.02%     69.54% # Class of executed instruction
system.cpu.op_class::SimdShiftAcc                   0      0.00%     69.54% # Class of executed instruction
system.cpu.op_class::SimdDiv                        0      0.00%     69.54% # Class of executed instruction
system.cpu.op_class::SimdSqrt                       0      0.00%     69.54% # Class of executed instruction
system.cpu.op_class::SimdFloatAdd               15212      1.73%     71.27% # Class of executed instruction
system.cpu.op_class::SimdFloatAlu                   0      0.00%     71.27% # Class of executed instruction
system.cpu.op_class::SimdFloatCmp                   0      0.00%     71.27% # Class of executed instruction
system.cpu.op_class::SimdFloatCvt               15412      1.76%     73.03% # Class of executed instruction
system.cpu.op_class::SimdFloatDiv                1600      0.18%     73.21% # Class of executed instruction
system.cpu.op_class::SimdFloatMisc                  0      0.00%     73.21% # Class of executed instruction
system.cpu.op_class::SimdFloatMult              22800      2.60%     75.81% # Class of executed instruction
system.cpu.op_class::SimdFloatMultAcc               0      0.00%     75.81% # Class of executed instruction
system.cpu.op_class::SimdFloatSqrt                400      0.05%     75.85% # Class of executed instruction
system.cpu.op_class::SimdReduceAdd                  0      0.00%     75.85% # Class of executed instruction
system.cpu.op_class::SimdReduceAlu                  0      0.00%     75.85% # Class of executed instruction
system.cpu.op_class::SimdReduceCmp                  0      0.00%     75.85% # Class of executed instruction
system.cpu.op_class::SimdFloatReduceAdd             0      0.00%     75.85% # Class of executed instruction
system.cpu.op_class::SimdFloatReduceCmp             0      0.00%     75.85% # Class of executed instruction
system.cpu.op_class::SimdAes                        0      0.00%     75.85% # Class of executed instruction
system.cpu.op_class::SimdAesMix                     0      0.00%     75.85% # Class of executed instruction
system.cpu.op_class::SimdSha1Hash                   0      0.00%     75.85% # Class of executed instruction
system.cpu.op_class::SimdSha1Hash2                  0      0.00%     75.85% # Class of executed instruction
system.cpu.op_class::SimdSha256Hash                 0      0.00%     75.85% # Class of executed instruction
system.cpu.op_class::SimdSha256Hash2                0      0.00%     75.85% # Class of executed instruction
system.cpu.op_class::SimdShaSigma2                  0      0.00%     75.85% # Class of executed instruction
system.cpu.op_class::SimdShaSigma3                  0      0.00%     75.85% # Class of executed instruction
system.cpu.op_class::SimdPredAlu                    0      0.00%     75.85% # Class of executed instruction
system.cpu.op_class::MemRead                    82109      9.35%     85.21% # Class of executed instruction
system.cpu.op_class::MemWrite                   33563      3.82%     89.03% # Class of executed instruction
system.cpu.op_class::FloatMemRead               62658      7.14%     96.17% # Class of executed instruction
system.cpu.op_class::FloatMemWrite              33637      3.83%    100.00% # Class of executed instruction
system.cpu.op_class::IprAccess                      0      0.00%    100.00% # Class of executed instruction
system.cpu.op_class::InstPrefetch                   0      0.00%    100.00% # Class of executed instruction
system.cpu.op_class::total                     877822                       # Class of executed instruction
system.cpu.workload.numSyscalls                    57                       # Number of system calls
system.membus.snoop_filter.hit_multi_requests            0                       # Number of requests hitting in the snoop filter with multiple (>1) holders of the requested data.
system.membus.snoop_filter.hit_multi_snoops            0                       # Number of snoops hitting in the snoop filter with multiple (>1) holders of the requested data.
system.membus.snoop_filter.hit_single_requests          453                       # Number of requests hitting in the snoop filter with a single holder of the requested data.
system.membus.snoop_filter.hit_single_snoops            0                       # Number of snoops hitting in the snoop filter with a single holder of the requested data.
system.membus.snoop_filter.tot_requests          8334                       # Total number of requests made to the snoop filter.
system.membus.snoop_filter.tot_snoops               0                       # Total number of snoops made to the snoop filter.
system.tol2bus.snoop_filter.hit_multi_requests            0                       # Number of requests hitting in the snoop filter with multiple (>1) holders of the requested data.
system.tol2bus.snoop_filter.hit_multi_snoops            0                       # Number of snoops hitting in the snoop filter with multiple (>1) holders of the requested data.
system.tol2bus.snoop_filter.hit_single_requests         1894                       # Number of requests hitting in the snoop filter with a single holder of the requested data.
system.tol2bus.snoop_filter.hit_single_snoops         1631                       # Number of snoops hitting in the snoop filter with a single holder of the requested data.
system.tol2bus.snoop_filter.tot_requests        10014                       # Total number of requests made to the snoop filter.
system.tol2bus.snoop_filter.tot_snoops           1631                       # Total number of snoops made to the snoop filter.
system.clk_domain.clock                          1000                       # Clock period in ticks
system.cpu.dcache.demand_hits::.cpu.data       214264                       # number of demand (read+write) hits
system.cpu.dcache.demand_hits::total           214264                       # number of demand (read+write) hits
system.cpu.dcache.overall_hits::.cpu.data       214264                       # number of overall hits
system.cpu.dcache.overall_hits::total          214264                       # number of overall hits
system.cpu.dcache.demand_misses::.cpu.data         5461                       # number of demand (read+write) misses
system.cpu.dcache.demand_misses::total           5461                       # number of demand (read+write) misses
system.cpu.dcache.overall_misses::.cpu.data         5461                       # number of overall misses
system.cpu.dcache.overall_misses::total          5461                       # number of overall misses
system.cpu.dcache.demand_miss_latency::.cpu.data    411424500                       # number of demand (read+write) miss cycles
system.cpu.dcache.demand_miss_latency::total    411424500                       # number of demand (read+write) miss cycles
system.cpu.dcache.overall_miss_latency::.cpu.data    411424500                       # number of overall miss cycles
system.cpu.dcache.overall_miss_latency::total    411424500                       # number of overall miss cycles
system.cpu.dcache.demand_accesses::.cpu.data       219725                       # number of demand (read+write) accesses
system.cpu.dcache.demand_accesses::total       219725                       # number of demand (read+write) accesses
system.cpu.dcache.overall_accesses::.cpu.data       219725                       # number of overall (read+write) accesses
system.cpu.dcache.overall_accesses::total       219725                       # number of overall (read+write) accesses
system.cpu.dcache.demand_miss_rate::.cpu.data     0.024854                       # miss rate for demand accesses
system.cpu.dcache.demand_miss_rate::total     0.024854                       # miss rate for demand accesses
system.cpu.dcache.overall_miss_rate::.cpu.data     0.024854                       # miss rate for overall accesses
system.cpu.dcache.overall_miss_rate::total     0.024854                       # miss rate for overall accesses
system.cpu.dcache.demand_avg_miss_latency::.cpu.data 75338.674235                       # average overall miss latency
system.cpu.dcache.demand_avg_miss_latency::total 75338.674235                       # average overall miss latency
system.cpu.dcache.overall_avg_miss_latency::.cpu.data 75338.674235                       # average overall miss latency
system.cpu.dcache.overall_avg_miss_latency::total 75338.674235                       # average overall miss latency
system.cpu.dcache.blocked_cycles::no_mshrs            0                       # number of cycles access was blocked
system.cpu.dcache.blocked_cycles::no_targets            0                       # number of cycles access was blocked
system.cpu.dcache.blocked::no_mshrs                 0                       # number of cycles access was blocked
system.cpu.dcache.blocked::no_targets               0                       # number of cycles access was blocked
system.cpu.dcache.avg_blocked_cycles::no_mshrs          nan                       # average number of cycles each access was blocked
system.cpu.dcache.avg_blocked_cycles::no_targets          nan                       # average number of cycles each access was blocked
system.cpu.dcache.writebacks::.writebacks          609                       # number of writebacks
system.cpu.dcache.writebacks::total               609                       # number of writebacks
system.cpu.dcache.demand_mshr_misses::.cpu.data         5461                       # number of demand (read+write) MSHR misses
system.cpu.dcache.demand_mshr_misses::total         5461                       # number of demand (read+write) MSHR misses
system.cpu.dcache.overall_mshr_misses::.cpu.data         5461                       # number of overall MSHR misses
system.cpu.dcache.overall_mshr_misses::total         5461                       # number of overall MSHR misses
system.cpu.dcache.demand_mshr_miss_latency::.cpu.data    405963500                       # number of demand (read+write) MSHR miss cycles
system.cpu.dcache.demand_mshr_miss_latency::total    405963500                       # number of demand (read+write) MSHR miss cycles
system.cpu.dcache.overall_mshr_miss_latency::.cpu.data    405963500                       # number of overall MSHR miss cycles
system.cpu.dcache.overall_mshr_miss_latency::total    405963500                       # number of overall MSHR miss cycles
system.cpu.dcache.demand_mshr_miss_rate::.cpu.data     0.024854                       # mshr miss rate for demand accesses
system.cpu.dcache.demand_mshr_miss_rate::total     0.024854                       # mshr miss rate for demand accesses
system.cpu.dcache.overall_mshr_miss_rate::.cpu.data     0.024854                       # mshr miss rate for overall accesses
system.cpu.dcache.overall_mshr_miss_rate::total     0.024854                       # mshr miss rate for overall accesses
system.cpu.dcache.demand_avg_mshr_miss_latency::.cpu.data 74338.674235                       # average overall mshr miss latency
system.cpu.dcache.demand_avg_mshr_miss_latency::total 74338.674235                       # average overall mshr miss latency
system.cpu.dcache.overall_avg_mshr_miss_latency::.cpu.data 74338.674235                       # average overall mshr miss latency
system.cpu.dcache.overall_avg_mshr_miss_latency::total 74338.674235                       # average overall mshr miss latency
system.cpu.dcache.replacements                   1578                       # number of replacements
system.cpu.dcache.ReadReq_hits::.cpu.data       148269                       # number of ReadReq hits
system.cpu.dcache.ReadReq_hits::total          148269                       # number of ReadReq hits
system.cpu.dcache.ReadReq_misses::.cpu.data         4273                       # number of ReadReq misses
system.cpu.dcache.ReadReq_misses::total          4273                       # number of ReadReq misses
system.cpu.dcache.ReadReq_miss_latency::.cpu.data    323875000                       # number of ReadReq miss cycles
system.cpu.dcache.ReadReq_miss_latency::total    323875000                       # number of ReadReq miss cycles
system.cpu.dcache.ReadReq_accesses::.cpu.data       152542                       # number of ReadReq accesses(hits+misses)
system.cpu.dcache.ReadReq_accesses::total       152542                       # number of ReadReq accesses(hits+misses)
system.cpu.dcache.ReadReq_miss_rate::.cpu.data     0.028012                       # miss rate for ReadReq accesses
system.cpu.dcache.ReadReq_miss_rate::total     0.028012                       # miss rate for ReadReq accesses
system.cpu.dcache.ReadReq_avg_miss_latency::.cpu.data 75795.693892                       # average ReadReq miss latency
system.cpu.dcache.ReadReq_avg_miss_latency::total 75795.693892                       # average ReadReq miss latency
system.cpu.dcache.ReadReq_mshr_misses::.cpu.data         4273                       # number of ReadReq MSHR misses
system.cpu.dcache.ReadReq_mshr_misses::total         4273                       # number of ReadReq MSHR misses
system.cpu.dcache.ReadReq_mshr_miss_latency::.cpu.data    319602000                       # number of ReadReq MSHR miss cycles
system.cpu.dcache.ReadReq_mshr_miss_latency::total    319602000                       # number of ReadReq MSHR miss cycles
system.cpu.dcache.ReadReq_mshr_miss_rate::.cpu.data     0.028012                       # mshr miss rate for ReadReq accesses
system.cpu.dcache.ReadReq_mshr_miss_rate::total     0.028012                       # mshr miss rate for ReadReq accesses
system.cpu.dcache.ReadReq_avg_mshr_miss_latency::.cpu.data 74795.693892                       # average ReadReq mshr miss latency
system.cpu.dcache.ReadReq_avg_mshr_miss_latency::total 74795.693892                       # average ReadReq mshr miss latency
system.cpu.dcache.WriteReq_hits::.cpu.data        65995                       # number of WriteReq hits
system.cpu.dcache.WriteReq_hits::total          65995                       # number of WriteReq hits
system.cpu.dcache.WriteReq_misses::.cpu.data         1188                       # number of WriteReq misses
system.cpu.dcache.WriteReq_misses::total         1188                       # number of WriteReq misses
system.cpu.dcache.WriteReq_miss_latency::.cpu.data     87549500                       # number of WriteReq miss cycles
system.cpu.dcache.WriteReq_miss_latency::total     87549500                       # number of WriteReq miss cycles
system.cpu.dcache.WriteReq_accesses::.cpu.data        67183                       # number of WriteReq accesses(hits+misses)
system.cpu.dcache.WriteReq_accesses::total        67183                       # number of WriteReq accesses(hits+misses)
system.cpu.dcache.WriteReq_miss_rate::.cpu.data     0.017683                       # miss rate for WriteReq accesses
system.cpu.dcache.WriteReq_miss_rate::total     0.017683                       # miss rate for WriteReq accesses
system.cpu.dcache.WriteReq_avg_miss_latency::.cpu.data 73694.865320                       # average WriteReq miss latency
system.cpu.dcache.WriteReq_avg_miss_latency::total 73694.865320                       # average WriteReq miss latency
system.cpu.dcache.WriteReq_mshr_misses::.cpu.data         1188                       # number of WriteReq MSHR misses
system.cpu.dcache.WriteReq_mshr_misses::total         1188                       # number of WriteReq MSHR misses
system.cpu.dcache.WriteReq_mshr_miss_latency::.cpu.data     86361500                       # number of WriteReq MSHR miss cycles
system.cpu.dcache.WriteReq_mshr_miss_latency::total     86361500                       # number of WriteReq MSHR miss cycles
system.cpu.dcache.WriteReq_mshr_miss_rate::.cpu.data     0.017683                       # mshr miss rate for WriteReq accesses
system.cpu.dcache.WriteReq_mshr_miss_rate::total     0.017683                       # mshr miss rate for WriteReq accesses
system.cpu.dcache.WriteReq_avg_mshr_miss_latency::.cpu.data 72694.865320                       # average WriteReq mshr miss latency
system.cpu.dcache.WriteReq_avg_mshr_miss_latency::total 72694.865320                       # average WriteReq mshr miss latency
system.cpu.dcache.power_state.pwrStateResidencyTicks::UNDEFINED   1466393500                       # Cumulative time (in ticks) in various power states
system.cpu.dcache.tags.tagsinuse          2958.070761                       # Cycle average of tags in use
system.cpu.dcache.tags.total_refs              219725                       # Total number of references to valid blocks.
system.cpu.dcache.tags.sampled_refs              5461                       # Sample count of references to valid blocks.
system.cpu.dcache.tags.avg_refs             40.235305                       # Average number of references to valid blocks.
system.cpu.dcache.tags.warmup_cycle            174500                       # Cycle when the warmup percentage was hit.
system.cpu.dcache.tags.occ_blocks::.cpu.data  2958.070761                       # Average occupied blocks per requestor
system.cpu.dcache.tags.occ_percent::.cpu.data     0.722185                       # Average percentage of cache occupancy
system.cpu.dcache.tags.occ_percent::total     0.722185                       # Average percentage of cache occupancy
system.cpu.dcache.tags.occ_task_id_blocks::1024         3883                       # Occupied blocks per task id
system.cpu.dcache.tags.age_task_id_blocks_1024::0           31                       # Occupied blocks per task id
system.cpu.dcache.tags.age_task_id_blocks_1024::1           20                       # Occupied blocks per task id
system.cpu.dcache.tags.age_task_id_blocks_1024::2         2244                       # Occupied blocks per task id
system.cpu.dcache.tags.age_task_id_blocks_1024::3         1588                       # Occupied blocks per task id
system.cpu.dcache.tags.occ_task_id_percent::1024     0.947998                       # Percentage of cache occupancy per task id
system.cpu.dcache.tags.tag_accesses            444911                       # Number of tag accesses
system.cpu.dcache.tags.data_accesses           444911                       # Number of data accesses
system.cpu.dcache.tags.power_state.pwrStateResidencyTicks::UNDEFINED   1466393500                       # Cumulative time (in ticks) in various power states
system.cpu.dtb.rdAccesses                      152616                       # TLB accesses on read requests
system.cpu.dtb.wrAccesses                       67200                       # TLB accesses on write requests
system.cpu.dtb.rdMisses                           236                       # TLB misses on read requests
system.cpu.dtb.wrMisses                            43                       # TLB misses on write requests
system.cpu.dtb.walker.power_state.pwrStateResidencyTicks::UNDEFINED   1466393500                       # Cumulative time (in ticks) in various power states
system.cpu.dtb_walker_cache.blocked_cycles::no_mshrs            0                       # number of cycles access was blocked
system.cpu.dtb_walker_cache.blocked_cycles::no_targets            0                       # number of cycles access was blocked
system.cpu.dtb_walker_cache.blocked::no_mshrs            0                       # number of cycles access was blocked
system.cpu.dtb_walker_cache.blocked::no_targets            0                       # number of cycles access was blocked
system.cpu.dtb_walker_cache.avg_blocked_cycles::no_mshrs          nan                       # average number of cycles each access was blocked
system.cpu.dtb_walker_cache.avg_blocked_cycles::no_targets          nan                       # average number of cycles each access was blocked
system.cpu.dtb_walker_cache.replacements            0                       # number of replacements
system.cpu.dtb_walker_cache.power_state.pwrStateResidencyTicks::UNDEFINED   1466393500                       # Cumulative time (in ticks) in various power states
system.cpu.dtb_walker_cache.tags.tagsinuse            0                       # Cycle average of tags in use
system.cpu.dtb_walker_cache.tags.total_refs            0                       # Total number of references to valid blocks.
system.cpu.dtb_walker_cache.tags.sampled_refs            0                       # Sample count of references to valid blocks.
system.cpu.dtb_walker_cache.tags.avg_refs          nan                       # Average number of references to valid blocks.
system.cpu.dtb_walker_cache.tags.warmup_cycle            0                       # Cycle when the warmup percentage was hit.
system.cpu.dtb_walker_cache.tags.tag_accesses            0                       # Number of tag accesses
system.cpu.dtb_walker_cache.tags.data_accesses            0                       # Number of data accesses
system.cpu.dtb_walker_cache.tags.power_state.pwrStateResidencyTicks::UNDEFINED   1466393500                       # Cumulative time (in ticks) in various power states
system.cpu.icache.demand_hits::.cpu.inst       640210                       # number of demand (read+write) hits
system.cpu.icache.demand_hits::total           640210                       # number of demand (read+write) hits
system.cpu.icache.overall_hits::.cpu.inst       640210                       # number of overall hits
system.cpu.icache.overall_hits::total          640210                       # number of overall hits
system.cpu.icache.demand_misses::.cpu.inst         2659                       # number of demand (read+write) misses
system.cpu.icache.demand_misses::total           2659                       # number of demand (read+write) misses
system.cpu.icache.overall_misses::.cpu.inst         2659                       # number of overall misses
system.cpu.icache.overall_misses::total          2659                       # number of overall misses
system.cpu.icache.demand_miss_latency::.cpu.inst    204597500                       # number of demand (read+write) miss cycles
system.cpu.icache.demand_miss_latency::total    204597500                       # number of demand (read+write) miss cycles
system.cpu.icache.overall_miss_latency::.cpu.inst    204597500                       # number of overall miss cycles
system.cpu.icache.overall_miss_latency::total    204597500                       # number of overall miss cycles
system.cpu.icache.demand_accesses::.cpu.inst       642869                       # number of demand (read+write) accesses
system.cpu.icache.demand_accesses::total       642869                       # number of demand (read+write) accesses
system.cpu.icache.overall_accesses::.cpu.inst       642869                       # number of overall (read+write) accesses
system.cpu.icache.overall_accesses::total       642869                       # number of overall (read+write) accesses
system.cpu.icache.demand_miss_rate::.cpu.inst     0.004136                       # miss rate for demand accesses
system.cpu.icache.demand_miss_rate::total     0.004136                       # miss rate for demand accesses
system.cpu.icache.overall_miss_rate::.cpu.inst     0.004136                       # miss rate for overall accesses
system.cpu.icache.overall_miss_rate::total     0.004136                       # miss rate for overall accesses
system.cpu.icache.demand_avg_miss_latency::.cpu.inst 76945.280181                       # average overall miss latency
system.cpu.icache.demand_avg_miss_latency::total 76945.280181                       # average overall miss latency
system.cpu.icache.overall_avg_miss_latency::.cpu.inst 76945.280181                       # average overall miss latency
system.cpu.icache.overall_avg_miss_latency::total 76945.280181                       # average overall miss latency
system.cpu.icache.blocked_cycles::no_mshrs            0                       # number of cycles access was blocked
system.cpu.icache.blocked_cycles::no_targets            0                       # number of cycles access was blocked
system.cpu.icache.blocked::no_mshrs                 0                       # number of cycles access was blocked
system.cpu.icache.blocked::no_targets               0                       # number of cycles access was blocked
system.cpu.icache.avg_blocked_cycles::no_mshrs          nan                       # average number of cycles each access was blocked
system.cpu.icache.avg_blocked_cycles::no_targets          nan                       # average number of cycles each access was blocked
system.cpu.icache.writebacks::.writebacks          316                       # number of writebacks
system.cpu.icache.writebacks::total               316                       # number of writebacks
system.cpu.icache.demand_mshr_misses::.cpu.inst         2659                       # number of demand (read+write) MSHR misses
system.cpu.icache.demand_mshr_misses::total         2659                       # number of demand (read+write) MSHR misses
system.cpu.icache.overall_mshr_misses::.cpu.inst         2659                       # number of overall MSHR misses
system.cpu.icache.overall_mshr_misses::total         2659                       # number of overall MSHR misses
system.cpu.icache.demand_mshr_miss_latency::.cpu.inst    201938500                       # number of demand (read+write) MSHR miss cycles
system.cpu.icache.demand_mshr_miss_latency::total    201938500                       # number of demand (read+write) MSHR miss cycles
system.cpu.icache.overall_mshr_miss_latency::.cpu.inst    201938500                       # number of overall MSHR miss cycles
system.cpu.icache.overall_mshr_miss_latency::total    201938500                       # number of overall MSHR miss cycles
system.cpu.icache.demand_mshr_miss_rate::.cpu.inst     0.004136                       # mshr miss rate for demand accesses
system.cpu.icache.demand_mshr_miss_rate::total     0.004136                       # mshr miss rate for demand accesses
system.cpu.icache.overall_mshr_miss_rate::.cpu.inst     0.004136                       # mshr miss rate for overall accesses
system.cpu.icache.overall_mshr_miss_rate::total     0.004136                       # mshr miss rate for overall accesses
system.cpu.icache.demand_avg_mshr_miss_latency::.cpu.inst 75945.280181                       # average overall mshr miss latency
system.cpu.icache.demand_avg_mshr_miss_latency::total 75945.280181                       # average overall mshr miss latency
system.cpu.icache.overall_avg_mshr_miss_latency::.cpu.inst 75945.280181                       # average overall mshr miss latency
system.cpu.icache.overall_avg_mshr_miss_latency::total 75945.280181                       # average overall mshr miss latency
system.cpu.icache.replacements                    316                       # number of replacements
system.cpu.icache.ReadReq_hits::.cpu.inst       640210                       # number of ReadReq hits
system.cpu.icache.ReadReq_hits::total          640210                       # number of ReadReq hits
system.cpu.icache.ReadReq_misses::.cpu.inst         2659                       # number of ReadReq misses
system.cpu.icache.ReadReq_misses::total          2659                       # number of ReadReq misses
system.cpu.icache.ReadReq_miss_latency::.cpu.inst    204597500                       # number of ReadReq miss cycles
system.cpu.icache.ReadReq_miss_latency::total    204597500                       # number of ReadReq miss cycles
system.cpu.icache.ReadReq_accesses::.cpu.inst       642869                       # number of ReadReq accesses(hits+misses)
system.cpu.icache.ReadReq_accesses::total       642869                       # number of ReadReq accesses(hits+misses)
system.cpu.icache.ReadReq_miss_rate::.cpu.inst     0.004136                       # miss rate for ReadReq accesses
system.cpu.icache.ReadReq_miss_rate::total     0.004136                       # miss rate for ReadReq accesses
system.cpu.icache.ReadReq_avg_miss_latency::.cpu.inst 76945.280181                       # average ReadReq miss latency
system.cpu.icache.ReadReq_avg_miss_latency::total 76945.280181                       # average ReadReq miss latency
system.cpu.icache.ReadReq_mshr_misses::.cpu.inst         2659                       # number of ReadReq MSHR misses
system.cpu.icache.ReadReq_mshr_misses::total         2659                       # number of ReadReq MSHR misses
system.cpu.icache.ReadReq_mshr_miss_latency::.cpu.inst    201938500                       # number of ReadReq MSHR miss cycles
system.cpu.icache.ReadReq_mshr_miss_latency::total    201938500                       # number of ReadReq MSHR miss cycles
system.cpu.icache.ReadReq_mshr_miss_rate::.cpu.inst     0.004136                       # mshr miss rate for ReadReq accesses
system.cpu.icache.ReadReq_mshr_miss_rate::total     0.004136                       # mshr miss rate for ReadReq accesses
system.cpu.icache.ReadReq_avg_mshr_miss_latency::.cpu.inst 75945.280181                       # average ReadReq mshr miss latency
system.cpu.icache.ReadReq_avg_mshr_miss_latency::total 75945.280181                       # average ReadReq mshr miss latency
system.cpu.icache.power_state.pwrStateResidencyTicks::UNDEFINED   1466393500                       # Cumulative time (in ticks) in various power states
system.cpu.icache.tags.tagsinuse          1505.388765                       # Cycle average of tags in use
system.cpu.icache.tags.total_refs              642869                       # Total number of references to valid blocks.
system.cpu.icache.tags.sampled_refs              2659                       # Sample count of references to valid blocks.
system.cpu.icache.tags.avg_refs            241.770967                       # Average number of references to valid blocks.
system.cpu.icache.tags.warmup_cycle             87500                       # Cycle when the warmup percentage was hit.
system.cpu.icache.tags.occ_blocks::.cpu.inst  1505.388765                       # Average occupied blocks per requestor
system.cpu.icache.tags.occ_percent::.cpu.inst     0.367527                       # Average percentage of cache occupancy
system.cpu.icache.tags.occ_percent::total     0.367527                       # Average percentage of cache occupancy
system.cpu.icache.tags.occ_task_id_blocks::1024         2343                       # Occupied blocks per task id
system.cpu.icache.tags.age_task_id_blocks_1024::0           95                       # Occupied blocks per task id
system.cpu.icache.tags.age_task_id_blocks_1024::1          230                       # Occupied blocks per task id
system.cpu.icache.tags.age_task_id_blocks_1024::2         1097                       # Occupied blocks per task id
system.cpu.icache.tags.age_task_id_blocks_1024::3          921                       # Occupied blocks per task id
system.cpu.icache.tags.occ_task_id_percent::1024     0.572021                       # Percentage of cache occupancy per task id
system.cpu.icache.tags.tag_accesses           1288397                       # Number of tag accesses
system.cpu.icache.tags.data_accesses          1288397                       # Number of data accesses
system.cpu.icache.tags.power_state.pwrStateResidencyTicks::UNDEFINED   1466393500                       # Cumulative time (in ticks) in various power states
system.cpu.interrupts.clk_domain.clock           8000                       # Clock period in ticks
system.cpu.itb.rdAccesses                           0                       # TLB accesses on read requests
system.cpu.itb.wrAccesses                      642947                       # TLB accesses on write requests
system.cpu.itb.rdMisses                             0                       # TLB misses on read requests
system.cpu.itb.wrMisses                           262                       # TLB misses on write requests
system.cpu.itb.walker.power_state.pwrStateResidencyTicks::UNDEFINED   1466393500                       # Cumulative time (in ticks) in various power states
system.cpu.itb_walker_cache.blocked_cycles::no_mshrs            0                       # number of cycles access was blocked
system.cpu.itb_walker_cache.blocked_cycles::no_targets            0                       # number of cycles access was blocked
system.cpu.itb_walker_cache.blocked::no_mshrs            0                       # number of cycles access was blocked
system.cpu.itb_walker_cache.blocked::no_targets            0                       # number of cycles access was blocked
system.cpu.itb_walker_cache.avg_blocked_cycles::no_mshrs          nan                       # average number of cycles each access was blocked
system.cpu.itb_walker_cache.avg_blocked_cycles::no_targets          nan                       # average number of cycles each access was blocked
system.cpu.itb_walker_cache.replacements            0                       # number of replacements
system.cpu.itb_walker_cache.power_state.pwrStateResidencyTicks::UNDEFINED   1466393500                       # Cumulative time (in ticks) in various power states
system.cpu.itb_walker_cache.tags.tagsinuse            0                       # Cycle average of tags in use
system.cpu.itb_walker_cache.tags.total_refs            0                       # Total number of references to valid blocks.
system.cpu.itb_walker_cache.tags.sampled_refs            0                       # Sample count of references to valid blocks.
system.cpu.itb_walker_cache.tags.avg_refs          nan                       # Average number of references to valid blocks.
system.cpu.itb_walker_cache.tags.warmup_cycle            0                       # Cycle when the warmup percentage was hit.
system.cpu.itb_walker_cache.tags.tag_accesses            0                       # Number of tag accesses
system.cpu.itb_walker_cache.tags.data_accesses            0                       # Number of data accesses
system.cpu.itb_walker_cache.tags.power_state.pwrStateResidencyTicks::UNDEFINED   1466393500                       # Cumulative time (in ticks) in various power states
system.cpu.power_state.pwrStateResidencyTicks::ON   1466393500                       # Cumulative time (in ticks) in various power states
system.cpu.thread_0.numInsts                        0                       # Number of Instructions committed
system.cpu.thread_0.numOps                          0                       # Number of Ops committed
system.cpu.thread_0.numMemRefs                      0                       # Number of Memory References
system.cpu_clk_domain.clock                       500                       # Clock period in ticks
system.cpu_voltage_domain.voltage                   1                       # Voltage in Volts
system.l2.demand_hits::.cpu.inst                   14                       # number of demand (read+write) hits
system.l2.demand_hits::.cpu.data                  225                       # number of demand (read+write) hits
system.l2.demand_hits::total                      239                       # number of demand (read+write) hits
system.l2.overall_hits::.cpu.inst                  14                       # number of overall hits
system.l2.overall_hits::.cpu.data                 225                       # number of overall hits
system.l2.overall_hits::total                     239                       # number of overall hits
system.l2.demand_misses::.cpu.inst               2645                       # number of demand (read+write) misses
system.l2.demand_misses::.cpu.data               5236                       # number of demand (read+write) misses
system.l2.demand_misses::total                   7881                       # number of demand (read+write) misses
system.l2.overall_misses::.cpu.inst              2645                       # number of overall misses
system.l2.overall_misses::.cpu.data              5236                       # number of overall misses
system.l2.overall_misses::total                  7881                       # number of overall misses
system.l2.demand_miss_latency::.cpu.inst    197803000                       # number of demand (read+write) miss cycles
system.l2.demand_miss_latency::.cpu.data    395408500                       # number of demand (read+write) miss cycles
system.l2.demand_miss_latency::total        593211500                       # number of demand (read+write) miss cycles
system.l2.overall_miss_latency::.cpu.inst    197803000                       # number of overall miss cycles
system.l2.overall_miss_latency::.cpu.data    395408500                       # number of overall miss cycles
system.l2.overall_miss_latency::total       593211500                       # number of overall miss cycles
system.l2.demand_accesses::.cpu.inst             2659                       # number of demand (read+write) accesses
system.l2.demand_accesses::.cpu.data             5461                       # number of demand (read+write) accesses
system.l2.demand_accesses::total                 8120                       # number of demand (read+write) accesses
system.l2.overall_accesses::.cpu.inst            2659                       # number of overall (read+write) accesses
system.l2.overall_accesses::.cpu.data            5461                       # number of overall (read+write) accesses
system.l2.overall_accesses::total                8120                       # number of overall (read+write) accesses
system.l2.demand_miss_rate::.cpu.inst        0.994735                       # miss rate for demand accesses
system.l2.demand_miss_rate::.cpu.data        0.958799                       # miss rate for demand accesses
system.l2.demand_miss_rate::total            0.970567                       # miss rate for demand accesses
system.l2.overall_miss_rate::.cpu.inst       0.994735                       # miss rate for overall accesses
system.l2.overall_miss_rate::.cpu.data       0.958799                       # miss rate for overall accesses
system.l2.overall_miss_rate::total           0.970567                       # miss rate for overall accesses
system.l2.demand_avg_miss_latency::.cpu.inst 74783.742911                       # average overall miss latency
system.l2.demand_avg_miss_latency::.cpu.data 75517.284186                       # average overall miss latency
system.l2.demand_avg_miss_latency::total 75271.095039                       # average overall miss latency
system.l2.overall_avg_miss_latency::.cpu.inst 74783.742911                       # average overall miss latency
system.l2.overall_avg_miss_latency::.cpu.data 75517.284186                       # average overall miss latency
system.l2.overall_avg_miss_latency::total 75271.095039                       # average overall miss latency
system.l2.blocked_cycles::no_mshrs                  0                       # number of cycles access was blocked
system.l2.blocked_cycles::no_targets                0                       # number of cycles access was blocked
system.l2.blocked::no_mshrs                         0                       # number of cycles access was blocked
system.l2.blocked::no_targets                       0                       # number of cycles access was blocked
system.l2.avg_blocked_cycles::no_mshrs            nan                       # average number of cycles each access was blocked
system.l2.avg_blocked_cycles::no_targets          nan                       # average number of cycles each access was blocked
system.l2.writebacks::.writebacks                  51                       # number of writebacks
system.l2.writebacks::total                        51                       # number of writebacks
system.l2.demand_mshr_misses::.cpu.inst          2645                       # number of demand (read+write) MSHR misses
system.l2.demand_mshr_misses::.cpu.data          5236                       # number of demand (read+write) MSHR misses
system.l2.demand_mshr_misses::total              7881                       # number of demand (read+write) MSHR misses
system.l2.overall_mshr_misses::.cpu.inst         2645                       # number of overall MSHR misses
system.l2.overall_mshr_misses::.cpu.data         5236                       # number of overall MSHR misses
system.l2.overall_mshr_misses::total             7881                       # number of overall MSHR misses
system.l2.demand_mshr_miss_latency::.cpu.inst    171353000                       # number of demand (read+write) MSHR miss cycles
system.l2.demand_mshr_miss_latency::.cpu.data    343048500                       # number of demand (read+write) MSHR miss cycles
system.l2.demand_mshr_miss_latency::total    514401500                       # number of demand (read+write) MSHR miss cycles
system.l2.overall_mshr_miss_latency::.cpu.inst    171353000                       # number of overall MSHR miss cycles
system.l2.overall_mshr_miss_latency::.cpu.data    343048500                       # number of overall MSHR miss cycles
system.l2.overall_mshr_miss_latency::total    514401500                       # number of overall MSHR miss cycles
system.l2.demand_mshr_miss_rate::.cpu.inst     0.994735                       # mshr miss rate for demand accesses
system.l2.demand_mshr_miss_rate::.cpu.data     0.958799                       # mshr miss rate for demand accesses
system.l2.demand_mshr_miss_rate::total       0.970567                       # mshr miss rate for demand accesses
system.l2.overall_mshr_miss_rate::.cpu.inst     0.994735                       # mshr miss rate for overall accesses
system.l2.overall_mshr_miss_rate::.cpu.data     0.958799                       # mshr miss rate for overall accesses
system.l2.overall_mshr_miss_rate::total      0.970567                       # mshr miss rate for overall accesses
system.l2.demand_avg_mshr_miss_latency::.cpu.inst 64783.742911                       # average overall mshr miss latency
system.l2.demand_avg_mshr_miss_latency::.cpu.data 65517.284186                       # average overall mshr miss latency
system.l2.demand_avg_mshr_miss_latency::total 65271.095039                       # average overall mshr miss latency
system.l2.overall_avg_mshr_miss_latency::.cpu.inst 64783.742911                       # average overall mshr miss latency
system.l2.overall_avg_mshr_miss_latency::.cpu.data 65517.284186                       # average overall mshr miss latency
system.l2.overall_avg_mshr_miss_latency::total 65271.095039                       # average overall mshr miss latency
system.l2.replacements                           1826                       # number of replacements
system.l2.WritebackDirty_hits::.writebacks          609                       # number of WritebackDirty hits
system.l2.WritebackDirty_hits::total              609                       # number of WritebackDirty hits
system.l2.WritebackDirty_accesses::.writebacks          609                       # number of WritebackDirty accesses(hits+misses)
system.l2.WritebackDirty_accesses::total          609                       # number of WritebackDirty accesses(hits+misses)
system.l2.WritebackClean_hits::.writebacks          316                       # number of WritebackClean hits
system.l2.WritebackClean_hits::total              316                       # number of WritebackClean hits
system.l2.WritebackClean_accesses::.writebacks          316                       # number of WritebackClean accesses(hits+misses)
system.l2.WritebackClean_accesses::total          316                       # number of WritebackClean accesses(hits+misses)
system.l2.CleanEvict_mshr_misses::.writebacks          258                       # number of CleanEvict MSHR misses
system.l2.CleanEvict_mshr_misses::total           258                       # number of CleanEvict MSHR misses
system.l2.CleanEvict_mshr_miss_rate::.writebacks          inf                       # mshr miss rate for CleanEvict accesses
system.l2.CleanEvict_mshr_miss_rate::total          inf                       # mshr miss rate for CleanEvict accesses
system.l2.ReadExReq_hits::.cpu.data                71                       # number of ReadExReq hits
system.l2.ReadExReq_hits::total                    71                       # number of ReadExReq hits
system.l2.ReadExReq_misses::.cpu.data            1117                       # number of ReadExReq misses
system.l2.ReadExReq_misses::total                1117                       # number of ReadExReq misses
system.l2.ReadExReq_miss_latency::.cpu.data     83834000                       # number of ReadExReq miss cycles
system.l2.ReadExReq_miss_latency::total      83834000                       # number of ReadExReq miss cycles
system.l2.ReadExReq_accesses::.cpu.data          1188                       # number of ReadExReq accesses(hits+misses)
system.l2.ReadExReq_accesses::total              1188                       # number of ReadExReq accesses(hits+misses)
system.l2.ReadExReq_miss_rate::.cpu.data     0.940236                       # miss rate for ReadExReq accesses
system.l2.ReadExReq_miss_rate::total         0.940236                       # miss rate for ReadExReq accesses
system.l2.ReadExReq_avg_miss_latency::.cpu.data 75052.820054                       # average ReadExReq miss latency
system.l2.ReadExReq_avg_miss_latency::total 75052.820054                       # average ReadExReq miss latency
system.l2.ReadExReq_mshr_misses::.cpu.data         1117                       # number of ReadExReq MSHR misses
system.l2.ReadExReq_mshr_misses::total           1117                       # number of ReadExReq MSHR misses
system.l2.ReadExReq_mshr_miss_latency::.cpu.data     72664000                       # number of ReadExReq MSHR miss cycles
system.l2.ReadExReq_mshr_miss_latency::total     72664000                       # number of ReadExReq MSHR miss cycles
system.l2.ReadExReq_mshr_miss_rate::.cpu.data     0.940236                       # mshr miss rate for ReadExReq accesses
system.l2.ReadExReq_mshr_miss_rate::total     0.940236                       # mshr miss rate for ReadExReq accesses
system.l2.ReadExReq_avg_mshr_miss_latency::.cpu.data 65052.820054                       # average ReadExReq mshr miss latency
system.l2.ReadExReq_avg_mshr_miss_latency::total 65052.820054                       # average ReadExReq mshr miss latency
system.l2.ReadCleanReq_hits::.cpu.inst             14                       # number of ReadCleanReq hits
system.l2.ReadCleanReq_hits::total                 14                       # number of ReadCleanReq hits
system.l2.ReadCleanReq_misses::.cpu.inst         2645                       # number of ReadCleanReq misses
system.l2.ReadCleanReq_misses::total             2645                       # number of ReadCleanReq misses
system.l2.ReadCleanReq_miss_latency::.cpu.inst    197803000                       # number of ReadCleanReq miss cycles
system.l2.ReadCleanReq_miss_latency::total    197803000                       # number of ReadCleanReq miss cycles
system.l2.ReadCleanReq_accesses::.cpu.inst         2659                       # number of ReadCleanReq accesses(hits+misses)
system.l2.ReadCleanReq_accesses::total           2659                       # number of ReadCleanReq accesses(hits+misses)
system.l2.ReadCleanReq_miss_rate::.cpu.inst     0.994735                       # miss rate for ReadCleanReq accesses
system.l2.ReadCleanReq_miss_rate::total      0.994735                       # miss rate for ReadCleanReq accesses
system.l2.ReadCleanReq_avg_miss_latency::.cpu.inst 74783.742911                       # average ReadCleanReq miss latency
system.l2.ReadCleanReq_avg_miss_latency::total 74783.742911                       # average ReadCleanReq miss latency
system.l2.ReadCleanReq_mshr_misses::.cpu.inst         2645                       # number of ReadCleanReq MSHR misses
system.l2.ReadCleanReq_mshr_misses::total         2645                       # number of ReadCleanReq MSHR misses
system.l2.ReadCleanReq_mshr_miss_latency::.cpu.inst    171353000                       # number of ReadCleanReq MSHR miss cycles
system.l2.ReadCleanReq_mshr_miss_latency::total    171353000                       # number of ReadCleanReq MSHR miss cycles
system.l2.ReadCleanReq_mshr_miss_rate::.cpu.inst     0.994735                       # mshr miss rate for ReadCleanReq accesses
system.l2.ReadCleanReq_mshr_miss_rate::total     0.994735                       # mshr miss rate for ReadCleanReq accesses
system.l2.ReadCleanReq_avg_mshr_miss_latency::.cpu.inst 64783.742911                       # average ReadCleanReq mshr miss latency
system.l2.ReadCleanReq_avg_mshr_miss_latency::total 64783.742911                       # average ReadCleanReq mshr miss latency
system.l2.ReadSharedReq_hits::.cpu.data           154                       # number of ReadSharedReq hits
system.l2.ReadSharedReq_hits::total               154                       # number of ReadSharedReq hits
system.l2.ReadSharedReq_misses::.cpu.data         4119                       # number of ReadSharedReq misses
system.l2.ReadSharedReq_misses::total            4119                       # number of ReadSharedReq misses
system.l2.ReadSharedReq_miss_latency::.cpu.data    311574500                       # number of ReadSharedReq miss cycles
system.l2.ReadSharedReq_miss_latency::total    311574500                       # number of ReadSharedReq miss cycles
system.l2.ReadSharedReq_accesses::.cpu.data         4273                       # number of ReadSharedReq accesses(hits+misses)
system.l2.ReadSharedReq_accesses::total          4273                       # number of ReadSharedReq accesses(hits+misses)
system.l2.ReadSharedReq_miss_rate::.cpu.data     0.963960                       # miss rate for ReadSharedReq accesses
system.l2.ReadSharedReq_miss_rate::total     0.963960                       # miss rate for ReadSharedReq accesses
system.l2.ReadSharedReq_avg_miss_latency::.cpu.data 75643.238650                       # average ReadSharedReq miss latency
system.l2.ReadSharedReq_avg_miss_latency::total 75643.238650                       # average ReadSharedReq miss latency
system.l2.ReadSharedReq_mshr_misses::.cpu.data         4119                       # number of ReadSharedReq MSHR misses
system.l2.ReadSharedReq_mshr_misses::total         4119                       # number of ReadSharedReq MSHR misses
system.l2.ReadSharedReq_mshr_miss_latency::.cpu.data    270384500                       # number of ReadSharedReq MSHR miss cycles
system.l2.ReadSharedReq_mshr_miss_latency::total    270384500                       # number of ReadSharedReq MSHR miss cycles
system.l2.ReadSharedReq_mshr_miss_rate::.cpu.data     0.963960                       # mshr miss rate for ReadSharedReq accesses
system.l2.ReadSharedReq_mshr_miss_rate::total     0.963960                       # mshr miss rate for ReadSharedReq accesses
system.l2.ReadSharedReq_avg_mshr_miss_latency::.cpu.data 65643.238650                       # average ReadSharedReq mshr miss latency
system.l2.ReadSharedReq_avg_mshr_miss_latency::total 65643.238650                       # average ReadSharedReq mshr miss latency
system.l2.power_state.pwrStateResidencyTicks::UNDEFINED   1466393500                       # Cumulative time (in ticks) in various power states
system.l2.tags.tagsinuse                  4622.850610                       # Cycle average of tags in use
system.l2.tags.total_refs                        9756                       # Total number of references to valid blocks.
system.l2.tags.sampled_refs                      8271                       # Sample count of references to valid blocks.
system.l2.tags.avg_refs                      1.179543                       # Average number of references to valid blocks.
system.l2.tags.warmup_cycle                     77000                       # Cycle when the warmup percentage was hit.
system.l2.tags.occ_blocks::.writebacks     147.530594                       # Average occupied blocks per requestor
system.l2.tags.occ_blocks::.cpu.inst      1311.020508                       # Average occupied blocks per requestor
system.l2.tags.occ_blocks::.cpu.data      3164.299509                       # Average occupied blocks per requestor
system.l2.tags.occ_percent::.writebacks      0.018009                       # Average percentage of cache occupancy
system.l2.tags.occ_percent::.cpu.inst        0.160037                       # Average percentage of cache occupancy
system.l2.tags.occ_percent::.cpu.data        0.386267                       # Average percentage of cache occupancy
system.l2.tags.occ_percent::total            0.564313                       # Average percentage of cache occupancy
system.l2.tags.occ_task_id_blocks::1024          6445                       # Occupied blocks per task id
system.l2.tags.age_task_id_blocks_1024::0          104                       # Occupied blocks per task id
system.l2.tags.age_task_id_blocks_1024::1          310                       # Occupied blocks per task id
system.l2.tags.age_task_id_blocks_1024::2         3411                       # Occupied blocks per task id
system.l2.tags.age_task_id_blocks_1024::3         2620                       # Occupied blocks per task id
system.l2.tags.occ_task_id_percent::1024     0.786743                       # Percentage of cache occupancy per task id
system.l2.tags.tag_accesses                     28299                       # Number of tag accesses
system.l2.tags.data_accesses                    28299                       # Number of data accesses
system.l2.tags.power_state.pwrStateResidencyTicks::UNDEFINED   1466393500                       # Cumulative time (in ticks) in various power states
system.mem_ctrls.avgPriority_.writebacks::samples        48.00                       # Average QoS priority value for accepted requests
system.mem_ctrls.avgPriority_.cpu.inst::samples      2645.00                       # Average QoS priority value for accepted requests
system.mem_ctrls.avgPriority_.cpu.data::samples      5235.00                       # Average QoS priority value for accepted requests
system.mem_ctrls.priorityMinLatency      0.000000018750                       # per QoS priority minimum request to response latency (s)
system.mem_ctrls.priorityMaxLatency      0.000680294250                       # per QoS priority maximum request to response latency (s)
system.mem_ctrls.numReadWriteTurnArounds            1                       # Number of turnarounds from READ to WRITE
system.mem_ctrls.numWriteReadTurnArounds            1                       # Number of turnarounds from WRITE to READ
system.mem_ctrls.numStayReadState               16187                       # Number of times bus staying in READ state
system.mem_ctrls.numStayWriteState                 17                       # Number of times bus staying in WRITE state
system.mem_ctrls.readReqs                        7881                       # Number of read requests accepted
system.mem_ctrls.writeReqs                         51                       # Number of write requests accepted
system.mem_ctrls.readBursts                      7881                       # Number of controller read bursts, including those serviced by the write queue
system.mem_ctrls.writeBursts                       51                       # Number of controller write bursts, including those merged in the write queue
system.mem_ctrls.servicedByWrQ                      1                       # Number of controller read bursts serviced by the write queue
system.mem_ctrls.mergedWrBursts                     3                       # Number of controller write bursts merged with an existing one
system.mem_ctrls.neitherReadNorWriteReqs            0                       # Number of requests that are neither read nor write
system.mem_ctrls.avgRdQLen                       1.00                       # Average read queue length when enqueuing
system.mem_ctrls.avgWrQLen                      11.69                       # Average write queue length when enqueuing
system.mem_ctrls.numRdRetry                         0                       # Number of times read queue was full causing retry
system.mem_ctrls.numWrRetry                         0                       # Number of times write queue was full causing retry
system.mem_ctrls.readPktSize::0                     0                       # Read request sizes (log2)
system.mem_ctrls.readPktSize::1                     0                       # Read request sizes (log2)
system.mem_ctrls.readPktSize::2                     0                       # Read request sizes (log2)
system.mem_ctrls.readPktSize::3                     0                       # Read request sizes (log2)
system.mem_ctrls.readPktSize::4                     0                       # Read request sizes (log2)
system.mem_ctrls.readPktSize::5                  7881                       # Read request sizes (log2)
system.mem_ctrls.writePktSize::0                    0                       # Write request sizes (log2)
system.mem_ctrls.writePktSize::1                    0                       # Write request sizes (log2)
system.mem_ctrls.writePktSize::2                    0                       # Write request sizes (log2)
system.mem_ctrls.writePktSize::3                    0                       # Write request sizes (log2)
system.mem_ctrls.writePktSize::4                    0                       # Write request sizes (log2)
system.mem_ctrls.writePktSize::5                   51                       # Write request sizes (log2)
system.mem_ctrls.rdQLenPdf::0                    7878                       # What read queue length does an incoming req see
system.mem_ctrls.rdQLenPdf::1                       2                       # What read queue length does an incoming req see
system.mem_ctrls.rdQLenPdf::2                       0                       # What read queue length does an incoming req see
system.mem_ctrls.rdQLenPdf::3                       0                       # What read queue length does an incoming req see
system.mem_ctrls.rdQLenPdf::4                       0                       # What read queue length does an incoming req see
system.mem_ctrls.rdQLenPdf::5                       0                       # What read queue length does an incoming req see
system.mem_ctrls.rdQLenPdf::6                       0                       # What read queue length does an incoming req see
system.mem_ctrls.rdQLenPdf::7                       0                       # What read queue length does an incoming req see
system.mem_ctrls.rdQLenPdf::8                       0                       # What read queue length does an incoming req see
system.mem_ctrls.rdQLenPdf::9                       0                       # What read queue length does an incoming req see
system.mem_ctrls.rdQLenPdf::10                      0                       # What read queue length does an incoming req see
system.mem_ctrls.rdQLenPdf::11                      0                       # What read queue length does an incoming req see
system.mem_ctrls.rdQLenPdf::12                      0                       # What read queue length does an incoming req see
system.mem_ctrls.rdQLenPdf::13                      0                       # What read queue length does an incoming req see
system.mem_ctrls.rdQLenPdf::14                      0                       # What read queue length does an incoming req see
system.mem_ctrls.rdQLenPdf::15                      0                       # What read queue length does an incoming req see
system.mem_ctrls.rdQLenPdf::16                      0                       # What read queue length does an incoming req see
system.mem_ctrls.rdQLenPdf::17                      0                       # What read queue length does an incoming req see
system.mem_ctrls.rdQLenPdf::18                      0                       # What read queue length does an incoming req see
system.mem_ctrls.rdQLenPdf::19                      0                       # What read queue length does an incoming req see
system.mem_ctrls.rdQLenPdf::20                      0                       # What read queue length does an incoming req see
system.mem_ctrls.rdQLenPdf::21                      0                       # What read queue length does an incoming req see
system.mem_ctrls.rdQLenPdf::22                      0                       # What read queue length does an incoming req see
system.mem_ctrls.rdQLenPdf::23                      0                       # What read queue length does an incoming req see
system.mem_ctrls.rdQLenPdf::24                      0                       # What read queue length does an incoming req see
system.mem_ctrls.rdQLenPdf::25                      0                       # What read queue length does an incoming req see
system.mem_ctrls.rdQLenPdf::26                      0                       # What read queue length does an incoming req see
system.mem_ctrls.rdQLenPdf::27                      0                       # What read queue length does an incoming req see
system.mem_ctrls.rdQLenPdf::28                      0                       # What read queue length does an incoming req see
system.mem_ctrls.rdQLenPdf::29                      0                       # What read queue length does an incoming req see
system.mem_ctrls.rdQLenPdf::30                      0                       # What read queue length does an incoming req see
system.mem_ctrls.rdQLenPdf::31                      0                       # What read queue length does an incoming req see
system.mem_ctrls.wrQLenPdf::0                       1                       # What write queue length does an incoming req see
system.mem_ctrls.wrQLenPdf::1                       1                       # What write queue length does an incoming req see
system.mem_ctrls.wrQLenPdf::2                       1                       # What write queue length does an incoming req see
system.mem_ctrls.wrQLenPdf::3                       1                       # What write queue length does an incoming req see
system.mem_ctrls.wrQLenPdf::4                       1                       # What write queue length does an incoming req see
system.mem_ctrls.wrQLenPdf::5                       1                       # What write queue length does an incoming req see
system.mem_ctrls.wrQLenPdf::6                       1                       # What write queue length does an incoming req see
system.mem_ctrls.wrQLenPdf::7                       1                       # What write queue length does an incoming req see
system.mem_ctrls.wrQLenPdf::8                       1                       # What write queue length does an incoming req see
system.mem_ctrls.wrQLenPdf::9                       1                       # What write queue length does an incoming req see
system.mem_ctrls.wrQLenPdf::10                      1                       # What write queue length does an incoming req see
system.mem_ctrls.wrQLenPdf::11                      1                       # What write queue length does an incoming req see
system.mem_ctrls.wrQLenPdf::12                      1                       # What write queue length does an incoming req see
system.mem_ctrls.wrQLenPdf::13                      1                       # What write queue length does an incoming req see
system.mem_ctrls.wrQLenPdf::14                      1                       # What write queue length does an incoming req see
system.mem_ctrls.wrQLenPdf::15                      2                       # What write queue length does an incoming req see
system.mem_ctrls.wrQLenPdf::16                      2                       # What write queue length does an incoming req see
system.mem_ctrls.wrQLenPdf::17                      2                       # What write queue length does an incoming req see
system.mem_ctrls.wrQLenPdf::18                      2                       # What write queue length does an incoming req see
system.mem_ctrls.wrQLenPdf::19                      2                       # What write queue length does an incoming req see
system.mem_ctrls.wrQLenPdf::20                      2                       # What write queue length does an incoming req see
system.mem_ctrls.wrQLenPdf::21                      2                       # What write queue length does an incoming req see
system.mem_ctrls.wrQLenPdf::22                      2                       # What write queue length does an incoming req see
system.mem_ctrls.wrQLenPdf::23                      2                       # What write queue length does an incoming req see
system.mem_ctrls.wrQLenPdf::24                      2                       # What write queue length does an incoming req see
system.mem_ctrls.wrQLenPdf::25                      2                       # What write queue length does an incoming req see
system.mem_ctrls.wrQLenPdf::26                      2                       # What write queue length does an incoming req see
system.mem_ctrls.wrQLenPdf::27                      2                       # What write queue length does an incoming req see
system.mem_ctrls.wrQLenPdf::28                      2                       # What write queue length does an incoming req see
system.mem_ctrls.wrQLenPdf::29                      2                       # What write queue length does an incoming req see
system.mem_ctrls.wrQLenPdf::30                      1                       # What write queue length does an incoming req see
system.mem_ctrls.wrQLenPdf::31                      1                       # What write queue length does an incoming req see
system.mem_ctrls.wrQLenPdf::32                      1                       # What write queue length does an incoming req see
system.mem_ctrls.wrQLenPdf::33                      0                       # What write queue length does an incoming req see
system.mem_ctrls.wrQLenPdf::34                      0                       # What write queue length does an incoming req see
system.mem_ctrls.wrQLenPdf::35                      0                       # What write queue length does an incoming req see
system.mem_ctrls.wrQLenPdf::36                      0                       # What write queue length does an incoming req see
system.mem_ctrls.wrQLenPdf::37                      0                       # What write queue length does an incoming req see
system.mem_ctrls.wrQLenPdf::38                      0                       # What write queue length does an incoming req see
system.mem_ctrls.wrQLenPdf::39                      0                       # What write queue length does an incoming req see
system.mem_ctrls.wrQLenPdf::40                      0                       # What write queue length does an incoming req see
system.mem_ctrls.wrQLenPdf::41                      0                       # What write queue length does an incoming req see
system.mem_ctrls.wrQLenPdf::42                      0                       # What write queue length does an incoming req see
system.mem_ctrls.wrQLenPdf::43                      0                       # What write queue length does an incoming req see
system.mem_ctrls.wrQLenPdf::44                      0                       # What write queue length does an incoming req see
system.mem_ctrls.wrQLenPdf::45                      0                       # What write queue length does an incoming req see
system.mem_ctrls.wrQLenPdf::46                      0                       # What write queue length does an incoming req see
system.mem_ctrls.wrQLenPdf::47                      0                       # What write queue length does an incoming req see
system.mem_ctrls.wrQLenPdf::48                      0                       # What write queue length does an incoming req see
system.mem_ctrls.wrQLenPdf::49                      0                       # What write queue length does an incoming req see
system.mem_ctrls.wrQLenPdf::50                      0                       # What write queue length does an incoming req see
system.mem_ctrls.wrQLenPdf::51                      0                       # What write queue length does an incoming req see
system.mem_ctrls.wrQLenPdf::52                      0                       # What write queue length does an incoming req see
system.mem_ctrls.wrQLenPdf::53                      0                       # What write queue length does an incoming req see
system.mem_ctrls.wrQLenPdf::54                      0                       # What write queue length does an incoming req see
system.mem_ctrls.wrQLenPdf::55                      0                       # What write queue length does an incoming req see
system.mem_ctrls.wrQLenPdf::56                      0                       # What write queue length does an incoming req see
system.mem_ctrls.wrQLenPdf::57                      0                       # What write queue length does an incoming req see
system.mem_ctrls.wrQLenPdf::58                      0                       # What write queue length does an incoming req see
system.mem_ctrls.wrQLenPdf::59                      0                       # What write queue length does an incoming req see
system.mem_ctrls.wrQLenPdf::60                      0                       # What write queue length does an incoming req see
system.mem_ctrls.wrQLenPdf::61                      0                       # What write queue length does an incoming req see
system.mem_ctrls.wrQLenPdf::62                      0                       # What write queue length does an incoming req see
system.mem_ctrls.wrQLenPdf::63                      0                       # What write queue length does an incoming req see
system.mem_ctrls.rdPerTurnAround::samples            1                       # Reads before turning the bus around for writes
system.mem_ctrls.rdPerTurnAround::mean           7298                       # Reads before turning the bus around for writes
system.mem_ctrls.rdPerTurnAround::gmean   7298.000000                       # Reads before turning the bus around for writes
system.mem_ctrls.rdPerTurnAround::stdev           nan                       # Reads before turning the bus around for writes
system.mem_ctrls.rdPerTurnAround::7168-7423            1    100.00%    100.00% # Reads before turning the bus around for writes
system.mem_ctrls.rdPerTurnAround::total             1                       # Reads before turning the bus around for writes
system.mem_ctrls.wrPerTurnAround::samples            1                       # Writes before turning the bus around for reads
system.mem_ctrls.wrPerTurnAround::mean             18                       # Writes before turning the bus around for reads
system.mem_ctrls.wrPerTurnAround::gmean     18.000000                       # Writes before turning the bus around for reads
system.mem_ctrls.wrPerTurnAround::stdev           nan                       # Writes before turning the bus around for reads
system.mem_ctrls.wrPerTurnAround::18                1    100.00%    100.00% # Writes before turning the bus around for reads
system.mem_ctrls.wrPerTurnAround::total             1                       # Writes before turning the bus around for reads
system.mem_ctrls.bytesReadWrQ                      64                       # Total number of bytes read from write queue
system.mem_ctrls.bytesReadSys                  252192                       # Total read bytes from the system interface side
system.mem_ctrls.bytesWrittenSys                 1632                       # Total written bytes from the system interface side
system.mem_ctrls.avgRdBWSys                    171.98                       # Average system read bandwidth in MiByte/s
system.mem_ctrls.avgWrBWSys                      1.11                       # Average system write bandwidth in MiByte/s
system.mem_ctrls.totGap                    1466378500                       # Total gap between requests
system.mem_ctrls.avgGap                     184868.70                       # Average gap between requests
system.mem_ctrls.requestorReadBytes::.cpu.inst        84640                       # Per-requestor bytes read from memory
system.mem_ctrls.requestorReadBytes::.cpu.data       167520                       # Per-requestor bytes read from memory
system.mem_ctrls.requestorWriteBytes::.writebacks          576                       # Per-requestor bytes write to memory
system.mem_ctrls.requestorReadRate::.cpu.inst 57719841.229519903660                       # Per-requestor bytes read from memory rate (Bytes/sec)
system.mem_ctrls.requestorReadRate::.cpu.data 114239458.917405188084                       # Per-requestor bytes read from memory rate (Bytes/sec)
system.mem_ctrls.requestorWriteRate::.writebacks 392800.431807696878                       # Per-requestor bytes write to memory rate (Bytes/sec)
system.mem_ctrls.requestorReadAccesses::.cpu.inst         2645                       # Per-requestor read serviced memory accesses
system.mem_ctrls.requestorReadAccesses::.cpu.data         5236                       # Per-requestor read serviced memory accesses
system.mem_ctrls.requestorWriteAccesses::.writebacks           51                       # Per-requestor write serviced memory accesses
[...]
system.mem_ctrls.dram.bw_total::.cpu.data    114261281                       # Total bandwidth to/from this memory (bytes/s)
system.mem_ctrls.dram.bw_total::total       173094057                       # Total bandwidth to/from this memory (bytes/s)
system.mem_ctrls.dram.readBursts                 7880                       # Number of DRAM read bursts
system.mem_ctrls.dram.writeBursts                  18                       # Number of DRAM write bursts
system.mem_ctrls.dram.perBankRdBursts::0          651                       # Per bank write bursts
system.mem_ctrls.dram.perBankRdBursts::1          415                       # Per bank write bursts
system.mem_ctrls.dram.perBankRdBursts::2          437                       # Per bank write bursts
system.mem_ctrls.dram.perBankRdBursts::3          522                       # Per bank write bursts
system.mem_ctrls.dram.perBankRdBursts::4          541                       # Per bank write bursts
system.mem_ctrls.dram.perBankRdBursts::5          335                       # Per bank write bursts
system.mem_ctrls.dram.perBankRdBursts::6          496                       # Per bank write bursts
system.mem_ctrls.dram.perBankRdBursts::7          402                       # Per bank write bursts
system.mem_ctrls.dram.perBankRdBursts::8          316                       # Per bank write bursts
system.mem_ctrls.dram.perBankRdBursts::9          709                       # Per bank write bursts
system.mem_ctrls.dram.perBankRdBursts::10          860                       # Per bank write bursts
system.mem_ctrls.dram.perBankRdBursts::11          475                       # Per bank write bursts
system.mem_ctrls.dram.perBankRdBursts::12          491                       # Per bank write bursts
system.mem_ctrls.dram.perBankRdBursts::13          451                       # Per bank write bursts
system.mem_ctrls.dram.perBankRdBursts::14          331                       # Per bank write bursts
system.mem_ctrls.dram.perBankRdBursts::15          448                       # Per bank write bursts
system.mem_ctrls.dram.perBankWrBursts::0            0                       # Per bank write bursts
system.mem_ctrls.dram.perBankWrBursts::1            0                       # Per bank write bursts
system.mem_ctrls.dram.perBankWrBursts::2            0                       # Per bank write bursts
system.mem_ctrls.dram.perBankWrBursts::3            0                       # Per bank write bursts
system.mem_ctrls.dram.perBankWrBursts::4            0                       # Per bank write bursts
system.mem_ctrls.dram.perBankWrBursts::5            0                       # Per bank write bursts
system.mem_ctrls.dram.perBankWrBursts::6            0                       # Per bank write bursts
system.mem_ctrls.dram.perBankWrBursts::7            0                       # Per bank write bursts
system.mem_ctrls.dram.perBankWrBursts::8            0                       # Per bank write bursts
system.mem_ctrls.dram.perBankWrBursts::9            9                       # Per bank write bursts
system.mem_ctrls.dram.perBankWrBursts::10            9                       # Per bank write bursts
system.mem_ctrls.dram.perBankWrBursts::11            0                       # Per bank write bursts
system.mem_ctrls.dram.perBankWrBursts::12            0                       # Per bank write bursts
system.mem_ctrls.dram.perBankWrBursts::13            0                       # Per bank write bursts
system.mem_ctrls.dram.perBankWrBursts::14            0                       # Per bank write bursts
system.mem_ctrls.dram.perBankWrBursts::15            0                       # Per bank write bursts
system.mem_ctrls.dram.totQLat                45106250                       # Total ticks spent queuing
system.mem_ctrls.dram.totBusLat              39400000                       # Total ticks spent in databus transfers
system.mem_ctrls.dram.totMemAccLat          192856250                       # Total ticks spent from burst creation until serviced by the DRAM
system.mem_ctrls.dram.avgQLat                 5724.14                       # Average queueing delay per DRAM burst
system.mem_ctrls.dram.avgBusLat               5000.00                       # Average bus latency per DRAM burst
system.mem_ctrls.dram.avgMemAccLat           24474.14                       # Average memory access latency per DRAM burst
system.mem_ctrls.dram.readRowHits                6560                       # Number of row buffer hits during reads
system.mem_ctrls.dram.writeRowHits                 17                       # Number of row buffer hits during writes
system.mem_ctrls.dram.readRowHitRate            83.25                       # Row buffer hit rate for reads
system.mem_ctrls.dram.writeRowHitRate           94.44                       # Row buffer hit rate for writes
system.mem_ctrls.dram.bytesPerActivate::samples         1316                       # Bytes accessed per row activation
system.mem_ctrls.dram.bytesPerActivate::mean   382.784195                       # Bytes accessed per row activation
system.mem_ctrls.dram.bytesPerActivate::gmean   231.771443                       # Bytes accessed per row activation
system.mem_ctrls.dram.bytesPerActivate::stdev   362.230159                       # Bytes accessed per row activation
system.mem_ctrls.dram.bytesPerActivate::0-127          354     26.90%     26.90% # Bytes accessed per row activation
system.mem_ctrls.dram.bytesPerActivate::128-255          330     25.08%     51.98% # Bytes accessed per row activation
system.mem_ctrls.dram.bytesPerActivate::256-383          147     11.17%     63.15% # Bytes accessed per row activation
system.mem_ctrls.dram.bytesPerActivate::384-511           89      6.76%     69.91% # Bytes accessed per row activation
system.mem_ctrls.dram.bytesPerActivate::512-639           65      4.94%     74.85% # Bytes accessed per row activation
system.mem_ctrls.dram.bytesPerActivate::640-767           30      2.28%     77.13% # Bytes accessed per row activation
system.mem_ctrls.dram.bytesPerActivate::768-895           34      2.58%     79.71% # Bytes accessed per row activation
system.mem_ctrls.dram.bytesPerActivate::896-1023           26      1.98%     81.69% # Bytes accessed per row activation
system.mem_ctrls.dram.bytesPerActivate::1024-1151          241     18.31%    100.00% # Bytes accessed per row activation
system.mem_ctrls.dram.bytesPerActivate::total         1316                       # Bytes accessed per row activation
system.mem_ctrls.dram.bytesRead                504320                       # Total number of bytes read from DRAM
system.mem_ctrls.dram.bytesWritten               1152                       # Total number of bytes written to DRAM
system.mem_ctrls.dram.avgRdBW              343.918600                       # Average DRAM read bandwidth in MiBytes/s
system.mem_ctrls.dram.avgWrBW                0.785601                       # Average DRAM write bandwidth in MiBytes/s
system.mem_ctrls.dram.peakBW                 12800.00                       # Theoretical peak bandwidth in MiByte/s
system.mem_ctrls.dram.busUtil                    2.69                       # Data bus utilization in percentage
system.mem_ctrls.dram.busUtilRead                2.69                       # Data bus utilization in percentage for reads
system.mem_ctrls.dram.busUtilWrite               0.01                       # Data bus utilization in percentage for writes
system.mem_ctrls.dram.pageHitRate               83.27                       # Row buffer hit rate, read and write combined
system.mem_ctrls.dram.power_state.pwrStateResidencyTicks::UNDEFINED   1466393500                       # Cumulative time (in ticks) in various power states
system.mem_ctrls.dram.rank0.actEnergy         5026560                       # Energy for activate commands per rank (pJ)
system.mem_ctrls.dram.rank0.preEnergy         2660295                       # Energy for precharge commands per rank (pJ)
system.mem_ctrls.dram.rank0.readEnergy       27124860                       # Energy for read commands per rank (pJ)
system.mem_ctrls.dram.rank0.writeEnergy             0                       # Energy for write commands per rank (pJ)
system.mem_ctrls.dram.rank0.refreshEnergy 115552320.000000                       # Energy for refresh commands per rank (pJ)
system.mem_ctrls.dram.rank0.actBackEnergy    395273910                       # Energy for active background per rank (pJ)
system.mem_ctrls.dram.rank0.preBackEnergy    230232960                       # Energy for precharge background per rank (pJ)
system.mem_ctrls.dram.rank0.actPowerDownEnergy            0                       # Energy for active power-down per rank (pJ)
system.mem_ctrls.dram.rank0.prePowerDownEnergy            0                       # Energy for precharge power-down per rank (pJ)
system.mem_ctrls.dram.rank0.selfRefreshEnergy            0                       # Energy for self refresh per rank (pJ)
system.mem_ctrls.dram.rank0.totalEnergy     775870905                       # Total energy per rank (pJ)
system.mem_ctrls.dram.rank0.averagePower   529.101435                       # Core power per rank (mW)
system.mem_ctrls.dram.rank0.totalIdleTime            0                       # Total Idle time Per DRAM Rank
system.mem_ctrls.dram.rank0.pwrStateTime::IDLE    595005750                       # Time in different power states
system.mem_ctrls.dram.rank0.pwrStateTime::REF     48880000                       # Time in different power states
system.mem_ctrls.dram.rank0.pwrStateTime::SREF            0                       # Time in different power states
system.mem_ctrls.dram.rank0.pwrStateTime::PRE_PDN            0                       # Time in different power states
system.mem_ctrls.dram.rank0.pwrStateTime::ACT    822507750                       # Time in different power states
system.mem_ctrls.dram.rank0.pwrStateTime::ACT_PDN            0                       # Time in different power states
system.mem_ctrls.dram.rank1.actEnergy         4405380                       # Energy for activate commands per rank (pJ)
system.mem_ctrls.dram.rank1.preEnergy         2333925                       # Energy for precharge commands per rank (pJ)
system.mem_ctrls.dram.rank1.readEnergy       29138340                       # Energy for read commands per rank (pJ)
system.mem_ctrls.dram.rank1.writeEnergy         93960                       # Energy for write commands per rank (pJ)
system.mem_ctrls.dram.rank1.refreshEnergy 115552320.000000                       # Energy for refresh commands per rank (pJ)
system.mem_ctrls.dram.rank1.actBackEnergy    403662600                       # Energy for active background per rank (pJ)
system.mem_ctrls.dram.rank1.preBackEnergy    223168800                       # Energy for precharge background per rank (pJ)
system.mem_ctrls.dram.rank1.actPowerDownEnergy            0                       # Energy for active power-down per rank (pJ)
system.mem_ctrls.dram.rank1.prePowerDownEnergy            0                       # Energy for precharge power-down per rank (pJ)
system.mem_ctrls.dram.rank1.selfRefreshEnergy            0                       # Energy for self refresh per rank (pJ)
system.mem_ctrls.dram.rank1.totalEnergy     778355325                       # Total energy per rank (pJ)
system.mem_ctrls.dram.rank1.averagePower   530.795673                       # Core power per rank (mW)
system.mem_ctrls.dram.rank1.totalIdleTime            0                       # Total Idle time Per DRAM Rank
system.mem_ctrls.dram.rank1.pwrStateTime::IDLE    576071000                       # Time in different power states
system.mem_ctrls.dram.rank1.pwrStateTime::REF     48880000                       # Time in different power states
system.mem_ctrls.dram.rank1.pwrStateTime::SREF            0                       # Time in different power states
system.mem_ctrls.dram.rank1.pwrStateTime::PRE_PDN            0                       # Time in different power states
system.mem_ctrls.dram.rank1.pwrStateTime::ACT    841442500                       # Time in different power states
system.mem_ctrls.dram.rank1.pwrStateTime::ACT_PDN            0                       # Time in different power states
system.mem_ctrls.power_state.pwrStateResidencyTicks::UNDEFINED   1466393500                       # Cumulative time (in ticks) in various power states
system.membus.trans_dist::ReadResp               6764                       # Transaction distribution
system.membus.trans_dist::WritebackDirty           51                       # Transaction distribution
system.membus.trans_dist::CleanEvict              402                       # Transaction distribution
system.membus.trans_dist::ReadExReq              1117                       # Transaction distribution
system.membus.trans_dist::ReadExResp             1117                       # Transaction distribution
system.membus.trans_dist::ReadSharedReq          6764                       # Transaction distribution
system.membus.pkt_count_system.l2.mem_side_port::system.mem_ctrls.port        16215                       # Packet count per connected requestor and responder (bytes)
system.membus.pkt_count_system.l2.mem_side_port::total        16215                       # Packet count per connected requestor and responder (bytes)
system.membus.pkt_count::total                  16215                       # Packet count per connected requestor and responder (bytes)
system.membus.pkt_size_system.l2.mem_side_port::system.mem_ctrls.port       253824                       # Cumulative packet size per connected requestor and responder (bytes)
system.membus.pkt_size_system.l2.mem_side_port::total       253824                       # Cumulative packet size per connected requestor and responder (bytes)
system.membus.pkt_size::total                  253824                       # Cumulative packet size per connected requestor and responder (bytes)
system.membus.snoops                                0                       # Total snoops (count)
system.membus.snoopTraffic                          0                       # Total snoop traffic (bytes)
system.membus.snoop_fanout::samples              7881                       # Request fanout histogram
system.membus.snoop_fanout::mean                    0                       # Request fanout histogram
system.membus.snoop_fanout::stdev                   0                       # Request fanout histogram
system.membus.snoop_fanout::underflows              0      0.00%      0.00% # Request fanout histogram
system.membus.snoop_fanout::0                    7881    100.00%    100.00% # Request fanout histogram
system.membus.snoop_fanout::1                       0      0.00%    100.00% # Request fanout histogram
system.membus.snoop_fanout::overflows               0      0.00%    100.00% # Request fanout histogram
system.membus.snoop_fanout::min_value               0                       # Request fanout histogram
system.membus.snoop_fanout::max_value               0                       # Request fanout histogram
system.membus.snoop_fanout::total                7881                       # Request fanout histogram
system.membus.power_state.pwrStateResidencyTicks::UNDEFINED   1466393500                       # Cumulative time (in ticks) in various power states
system.membus.reqLayer2.occupancy             8453000                       # Layer occupancy (ticks)
system.membus.reqLayer2.utilization               0.6                       # Layer utilization (%)
system.membus.respLayer1.occupancy           25995750                       # Layer occupancy (ticks)
system.membus.respLayer1.utilization              1.8                       # Layer utilization (%)
system.tol2bus.trans_dist::ReadResp              6932                       # Transaction distribution
system.tol2bus.trans_dist::WritebackDirty          660                       # Transaction distribution
system.tol2bus.trans_dist::WritebackClean          316                       # Transaction distribution
system.tol2bus.trans_dist::CleanEvict            2744                       # Transaction distribution
system.tol2bus.trans_dist::ReadExReq             1188                       # Transaction distribution
system.tol2bus.trans_dist::ReadExResp            1188                       # Transaction distribution
system.tol2bus.trans_dist::ReadCleanReq          2659                       # Transaction distribution
system.tol2bus.trans_dist::ReadSharedReq         4273                       # Transaction distribution
system.tol2bus.pkt_count_system.cpu.icache.mem_side_port::system.l2.cpu_side_port         5634                       # Packet count per connected requestor and responder (bytes)
system.tol2bus.pkt_count_system.cpu.dcache.mem_side_port::system.l2.cpu_side_port        12500                       # Packet count per connected requestor and responder (bytes)
system.tol2bus.pkt_count::total                 18134                       # Packet count per connected requestor and responder (bytes)
system.tol2bus.pkt_size_system.cpu.icache.mem_side_port::system.l2.cpu_side_port        95200                       # Cumulative packet size per connected requestor and responder (bytes)
system.tol2bus.pkt_size_system.cpu.dcache.mem_side_port::system.l2.cpu_side_port       194240                       # Cumulative packet size per connected requestor and responder (bytes)
system.tol2bus.pkt_size::total                 289440                       # Cumulative packet size per connected requestor and responder (bytes)
system.tol2bus.snoops                            1826                       # Total snoops (count)
system.tol2bus.snoopTraffic                      1632                       # Total snoop traffic (bytes)
system.tol2bus.snoop_fanout::samples             9946                       # Request fanout histogram
system.tol2bus.snoop_fanout::mean            0.163986                       # Request fanout histogram
system.tol2bus.snoop_fanout::stdev           0.370281                       # Request fanout histogram
system.tol2bus.snoop_fanout::underflows             0      0.00%      0.00% # Request fanout histogram
system.tol2bus.snoop_fanout::0                   8315     83.60%     83.60% # Request fanout histogram
system.tol2bus.snoop_fanout::1                   1631     16.40%    100.00% # Request fanout histogram
system.tol2bus.snoop_fanout::2                      0      0.00%    100.00% # Request fanout histogram
system.tol2bus.snoop_fanout::3                      0      0.00%    100.00% # Request fanout histogram
system.tol2bus.snoop_fanout::4                      0      0.00%    100.00% # Request fanout histogram
system.tol2bus.snoop_fanout::overflows              0      0.00%    100.00% # Request fanout histogram
system.tol2bus.snoop_fanout::min_value              0                       # Request fanout histogram
system.tol2bus.snoop_fanout::max_value              1                       # Request fanout histogram
system.tol2bus.snoop_fanout::total               9946                       # Request fanout histogram
system.tol2bus.power_state.pwrStateResidencyTicks::UNDEFINED   1466393500                       # Cumulative time (in ticks) in various power states
system.tol2bus.reqLayer0.occupancy            5469500                       # Layer occupancy (ticks)
system.tol2bus.reqLayer0.utilization              0.4                       # Layer utilization (%)
system.tol2bus.respLayer0.occupancy           2659000                       # Layer occupancy (ticks)
system.tol2bus.respLayer0.utilization             0.2                       # Layer utilization (%)
system.tol2bus.respLayer1.occupancy           5461000                       # Layer occupancy (ticks)
system.tol2bus.respLayer1.utilization             0.4                       # Layer utilization (%)
system.voltage_domain.voltage                       1                       # Voltage in Volts

---------- End Simulation Statistics   ----------
