
---------- Begin Simulation Statistics ----------
final_tick                                 1463610500                       # Number of ticks from beginning of simulation (restored from checkpoints and never reset)
host_inst_rate                                 161246                       # Simulator instruction rate (inst/s)
host_mem_usage                                 695840                       # Number of bytes of host memory used
host_op_rate                                   300960                       # Simulator op (including micro ops) rate (op/s)
host_seconds                                     2.92                       # Real time elapsed on the host
host_tick_rate                              501777179                       # Simulator tick rate (ticks/s)
sim_freq                                 1000000000000                       # Frequency of simulated ticks
sim_insts                                      470280                       # Number of instructions simulated
sim_ops                                        877835                       # Number of ops (including micro ops) simulated
sim_seconds                                  0.001464                       # Number of seconds simulated
sim_ticks                                  1463610500                       # Number of ticks simulated
system.cpu.Branches                             72604                       # Number of branches fetched
system.cpu.committedInsts                      470280                       # Number of instructions committed
system.cpu.committedOps                        877835                       # Number of ops (including micro ops) committed
system.cpu.idle_fraction                     0.000000                       # Percentage of idle cycles
system.cpu.not_idle_fraction                 1.000000                       # Percentage of non-idle cycles
system.cpu.numCycles                          2927221                       # number of cpu cycles simulated
system.cpu.numWorkItemsCompleted                    0                       # number of work items this cpu completed
system.cpu.numWorkItemsStarted                      0                       # number of work items this cpu started
system.cpu.num_busy_cycles               2927220.998000                       # Number of busy cycles
system.cpu.num_cc_register_reads               329877                       # number of times the CC registers were read
system.cpu.num_cc_register_writes              220612                       # number of times the CC registers were written
system.cpu.num_conditional_control_insts        50060                       # number of instructions that are conditional controls
system.cpu.num_fp_alu_accesses                 253735                       # Number of float alu accesses
system.cpu.num_fp_insts                        253735                       # number of float instructions
system.cpu.num_fp_register_reads               239399                       # number of times the floating registers were read
system.cpu.num_fp_register_writes              213269                       # number of times the floating registers were written
system.cpu.num_func_calls                       13694                       # number of times a function call or return occured
system.cpu.num_idle_cycles                   0.002000                       # Number of idle cycles
system.cpu.num_int_alu_accesses                720319                       # Number of integer alu accesses
system.cpu.num_int_insts                       720319                       # number of integer instructions
system.cpu.num_int_register_reads             1479845                       # number of times the integer registers were read
system.cpu.num_int_register_writes             517806                       # number of times the integer registers were written
system.cpu.num_load_insts                      144784                       # Number of load instructions
system.cpu.num_mem_refs                        211985                       # number of memory refs
system.cpu.num_store_insts                      67201                       # Number of store instructions
system.cpu.num_vec_alu_accesses                     0                       # Number of vector alu accesses
system.cpu.num_vec_insts                            0                       # number of vector instructions
system.cpu.num_vec_register_reads                   0                       # number of times the vector registers were read
system.cpu.num_vec_register_writes                  0                       # number of times the vector registers were written
system.cpu.op_class::No_OpClass                 11339      1.29%      1.29% # Class of executed instruction
system.cpu.op_class::IntAlu                    504634     57.48%     58.77% # Class of executed instruction
system.cpu.op_class::IntMult                      123      0.01%     58.78% # Class of executed instruction
system.cpu.op_class::IntDiv                      2125      0.24%     59.02% # Class of executed instruction
system.cpu.op_class::FloatAdd                   69680      7.94%     66.96% # Class of executed instruction
system.cpu.op_class::FloatCmp                       0      0.00%     66.96% # Class of executed instruction
system.cpu.op_class::FloatCvt                      32      0.00%     66.96% # Class of executed instruction
system.cpu.op_class::FloatMult                      0      0.00%     66.96% # Class of executed instruction
system.cpu.op_class::FloatMultAcc                   0      0.00%     66.96% # Class of executed instruction
system.cpu.op_class::FloatDiv                       0      0.00%     66.96% # Class of executed instruction
system.cpu.op_class::FloatMisc                      0      0.00%     66.96% # Class of executed instruction
system.cpu.op_class::FloatSqrt                      0      0.00%     66.96% # Class of executed instruction
system.cpu.op_class::SimdAdd                      554      0.06%     67.03% # Class of executed instruction
system.cpu.op_class::SimdAddAcc                     0      0.00%     67.03% # Class of executed instruction
system.cpu.op_class::SimdAlu                     9039      1.03%     68.06% # Class of executed instruction
system.cpu.op_class::SimdCmp                        0      0.00%     68.06% # Class of executed instruction
system.cpu.op_class::SimdCvt                     1366      0.16%     68.21% # Class of executed instruction
system.cpu.op_class::SimdMisc                   11506      1.31%     69.52% # Class of executed instruction
system.cpu.op_class::SimdMult                       0      0.00%     69.52% # Class of executed instruction
system.cpu.op_class::SimdMultAcc                    0      0.00%     69.52% # Class of executed instruction
system.cpu.op_class::SimdShift                    174      0.02%     69.54% # Class of executed instruction
system.cpu.op_class::SimdShiftAcc                   0      0.00%     69.54% # Class of executed instruction
system.cpu.op_class::SimdDiv                        0      0.00%     69.54% # Class of executed instruction
system.cpu.op_class::SimdSqrt                       0      0.00%     69.54% # Class of executed instruction
system.cpu.op_class::SimdFloatAdd               15212      1.73%     71.28% # Class of executed instruction
system.cpu.op_class::SimdFloatAlu                   0      0.00%     71.28% # Class of executed instruction
system.cpu.op_class::SimdFloatCmp                   0      0.00%     71.28% # Class of executed instruction
system.cpu.op_class::SimdFloatCvt               15412      1.76%     73.03% # Class of executed instruction
system.cpu.op_class::SimdFloatDiv                1600      0.18%     73.21% # Class of executed instruction
system.cpu.op_class::SimdFloatMisc                  0      0.00%     73.21% # Class of executed instruction
system.cpu.op_class::SimdFloatMult              22800      2.60%     75.81% # Class of executed instruction
system.cpu.op_class::SimdFloatMultAcc               0      0.00%     75.81% # Class of executed instruction
system.cpu.op_class::SimdFloatSqrt                400      0.05%     75.86% # Class of executed instruction
system.cpu.op_class::SimdReduceAdd                  0      0.00%     75.86% # Class of executed instruction
system.cpu.op_class::SimdReduceAlu                  0      0.00%     75.86% # Class of executed instruction
system.cpu.op_class::SimdReduceCmp                  0      0.00%     75.86% # Class of executed instruction
system.cpu.op_class::SimdFloatReduceAdd             0      0.00%     75.86% # Class of executed instruction
system.cpu.op_class::SimdFloatReduceCmp             0      0.00%     75.86% # Class of executed instruction
system.cpu.op_class::SimdAes                        0      0.00%     75.86% # Class of executed instruction
system.cpu.op_class::SimdAesMix                     0      0.00%     75.86% # Class of executed instruction
system.cpu.op_class::SimdSha1Hash                   0      0.00%     75.86% # Class of executed instruction
system.cpu.op_class::SimdSha1Hash2                  0      0.00%     75.86% # Class of executed instruction
system.cpu.op_class::SimdSha256Hash                 0      0.00%     75.86% # Class of executed instruction
system.cpu.op_class::SimdSha256Hash2                0      0.00%     75.86% # Class of executed instruction
system.cpu.op_class::SimdShaSigma2                  0      0.00%     75.86% # Class of executed instruction
system.cpu.op_class::SimdShaSigma3                  0      0.00%     75.86% # Class of executed instruction
system.cpu.op_class::SimdPredAlu                    0      0.00%     75.86% # Class of executed instruction
system.cpu.op_class::MemRead                    82126      9.35%     85.21% # Class of executed instruction
system.cpu.op_class::MemWrite                   33564      3.82%     89.03% # Class of executed instruction
system.cpu.op_class::FloatMemRead               62658      7.14%     96.17% # Class of executed instruction
system.cpu.op_class::FloatMemWrite              33637      3.83%    100.00% # Class of executed instruction
system.cpu.op_class::IprAccess                      0      0.00%    100.00% # Class of executed instruction
system.cpu.op_class::InstPrefetch                   0      0.00%    100.00% # Class of executed instruction
system.cpu.op_class::total                     877981                       # Class of executed instruction
system.cpu.workload.numSyscalls                    57                       # Number of system calls
system.membus.snoop_filter.hit_multi_requests            0                       # Number of requests hitting in the snoop filter with multiple (>1) holders of the requested data.
system.membus.snoop_filter.hit_multi_snoops            0                       # Number of snoops hitting in the snoop filter with multiple (>1) holders of the requested data.
system.membus.snoop_filter.hit_single_requests          348                       # Number of requests hitting in the snoop filter with a single holder of the requested data.
system.membus.snoop_filter.hit_single_snoops            0                       # Number of snoops hitting in the snoop filter with a single holder of the requested data.
system.membus.snoop_filter.tot_requests          8232                       # Total number of requests made to the snoop filter.
system.membus.snoop_filter.tot_snoops               0                       # Total number of snoops made to the snoop filter.
system.tol2bus.snoop_filter.hit_multi_requests            0                       # Number of requests hitting in the snoop filter with multiple (>1) holders of the requested data.
system.tol2bus.snoop_filter.hit_multi_snoops            0                       # Number of snoops hitting in the snoop filter with multiple (>1) holders of the requested data.
system.tol2bus.snoop_filter.hit_single_requests         1817                       # Number of requests hitting in the snoop filter with a single holder of the requested data.
system.tol2bus.snoop_filter.hit_single_snoops         1566                       # Number of snoops hitting in the snoop filter with a single holder of the requested data.
system.tol2bus.snoop_filter.tot_requests         9860                       # Total number of requests made to the snoop filter.
system.tol2bus.snoop_filter.tot_snoops           1566                       # Total number of snoops made to the snoop filter.
system.clk_domain.clock                          1000                       # Clock period in ticks
system.cpu.dcache.demand_hits::.cpu.data       214351                       # number of demand (read+write) hits
system.cpu.dcache.demand_hits::total           214351                       # number of demand (read+write) hits
system.cpu.dcache.overall_hits::.cpu.data       214351                       # number of overall hits
system.cpu.dcache.overall_hits::total          214351                       # number of overall hits
system.cpu.dcache.demand_misses::.cpu.data         5395                       # number of demand (read+write) misses
system.cpu.dcache.demand_misses::total           5395                       # number of demand (read+write) misses
system.cpu.dcache.overall_misses::.cpu.data         5395                       # number of overall misses
system.cpu.dcache.overall_misses::total          5395                       # number of overall misses
system.cpu.dcache.demand_miss_latency::.cpu.data    409959500                       # number of demand (read+write) miss cycles
system.cpu.dcache.demand_miss_latency::total    409959500                       # number of demand (read+write) miss cycles
system.cpu.dcache.overall_miss_latency::.cpu.data    409959500                       # number of overall miss cycles
system.cpu.dcache.overall_miss_latency::total    409959500                       # number of overall miss cycles
system.cpu.dcache.demand_accesses::.cpu.data       219746                       # number of demand (read+write) accesses
system.cpu.dcache.demand_accesses::total       219746                       # number of demand (read+write) accesses
system.cpu.dcache.overall_accesses::.cpu.data       219746                       # number of overall (read+write) accesses
system.cpu.dcache.overall_accesses::total       219746                       # number of overall (read+write) accesses
system.cpu.dcache.demand_miss_rate::.cpu.data     0.024551                       # miss rate for demand accesses
system.cpu.dcache.demand_miss_rate::total     0.024551                       # miss rate for demand accesses
system.cpu.dcache.overall_miss_rate::.cpu.data     0.024551                       # miss rate for overall accesses
system.cpu.dcache.overall_miss_rate::total     0.024551                       # miss rate for overall accesses
system.cpu.dcache.demand_avg_miss_latency::.cpu.data 75988.785913                       # average overall miss latency
system.cpu.dcache.demand_avg_miss_latency::total 75988.785913                       # average overall miss latency
system.cpu.dcache.overall_avg_miss_latency::.cpu.data 75988.785913                       # average overall miss latency
system.cpu.dcache.overall_avg_miss_latency::total 75988.785913                       # average overall miss latency
system.cpu.dcache.blocked_cycles::no_mshrs            0                       # number of cycles access was blocked
system.cpu.dcache.blocked_cycles::no_targets            0                       # number of cycles access was blocked
system.cpu.dcache.blocked::no_mshrs                 0                       # number of cycles access was blocked
system.cpu.dcache.blocked::no_targets               0                       # number of cycles access was blocked
system.cpu.dcache.avg_blocked_cycles::no_mshrs          nan                       # average number of cycles each access was blocked
system.cpu.dcache.avg_blocked_cycles::no_targets          nan                       # average number of cycles each access was blocked
system.cpu.dcache.writebacks::.writebacks          557                       # number of writebacks
system.cpu.dcache.writebacks::total               557                       # number of writebacks
system.cpu.dcache.demand_mshr_misses::.cpu.data         5395                       # number of demand (read+write) MSHR misses
system.cpu.dcache.demand_mshr_misses::total         5395                       # number of demand (read+write) MSHR misses
system.cpu.dcache.overall_mshr_misses::.cpu.data         5395                       # number of overall MSHR misses
system.cpu.dcache.overall_mshr_misses::total         5395                       # number of overall MSHR misses
system.cpu.dcache.demand_mshr_miss_latency::.cpu.data    404564500                       # number of demand (read+write) MSHR miss cycles
system.cpu.dcache.demand_mshr_miss_latency::total    404564500                       # number of demand (read+write) MSHR miss cycles
system.cpu.dcache.overall_mshr_miss_latency::.cpu.data    404564500                       # number of overall MSHR miss cycles
system.cpu.dcache.overall_mshr_miss_latency::total    404564500                       # number of overall MSHR miss cycles
system.cpu.dcache.demand_mshr_miss_rate::.cpu.data     0.024551                       # mshr miss rate for demand accesses
system.cpu.dcache.demand_mshr_miss_rate::total     0.024551                       # mshr miss rate for demand accesses
system.cpu.dcache.overall_mshr_miss_rate::.cpu.data     0.024551                       # mshr miss rate for overall accesses
system.cpu.dcache.overall_mshr_miss_rate::total     0.024551                       # mshr miss rate for overall accesses
system.cpu.dcache.demand_avg_mshr_miss_latency::.cpu.data 74988.785913                       # average overall mshr miss latency
system.cpu.dcache.demand_avg_mshr_miss_latency::total 74988.785913                       # average overall mshr miss latency
system.cpu.dcache.overall_avg_mshr_miss_latency::.cpu.data 74988.785913                       # average overall mshr miss latency
system.cpu.dcache.overall_avg_mshr_miss_latency::total 74988.785913                       # average overall mshr miss latency
system.cpu.dcache.replacements                   1511                       # number of replacements
system.cpu.dcache.ReadReq_hits::.cpu.data       148305                       # number of ReadReq hits
system.cpu.dcache.ReadReq_hits::total          148305                       # number of ReadReq hits
system.cpu.dcache.ReadReq_misses::.cpu.data         4257                       # number of ReadReq misses
system.cpu.dcache.ReadReq_misses::total          4257                       # number of ReadReq misses
system.cpu.dcache.ReadReq_miss_latency::.cpu.data    323505000                       # number of ReadReq miss cycles
system.cpu.dcache.ReadReq_miss_latency::total    323505000                       # number of ReadReq miss cycles
system.cpu.dcache.ReadReq_accesses::.cpu.data       152562                       # number of ReadReq accesses(hits+misses)
system.cpu.dcache.ReadReq_accesses::total       152562                       # number of ReadReq accesses(hits+misses)
system.cpu.dcache.ReadReq_miss_rate::.cpu.data     0.027903                       # miss rate for ReadReq accesses
system.cpu.dcache.ReadReq_miss_rate::total     0.027903                       # miss rate for ReadReq accesses
system.cpu.dcache.ReadReq_avg_miss_latency::.cpu.data 75993.657505                       # average ReadReq miss latency
system.cpu.dcache.ReadReq_avg_miss_latency::total 75993.657505                       # average ReadReq miss latency
system.cpu.dcache.ReadReq_mshr_misses::.cpu.data         4257                       # number of ReadReq MSHR misses
system.cpu.dcache.ReadReq_mshr_misses::total         4257                       # number of ReadReq MSHR misses
system.cpu.dcache.ReadReq_mshr_miss_latency::.cpu.data    319248000                       # number of ReadReq MSHR miss cycles
system.cpu.dcache.ReadReq_mshr_miss_latency::total    319248000                       # number of ReadReq MSHR miss cycles
system.cpu.dcache.ReadReq_mshr_miss_rate::.cpu.data     0.027903                       # mshr miss rate for ReadReq accesses
system.cpu.dcache.ReadReq_mshr_miss_rate::total     0.027903                       # mshr miss rate for ReadReq accesses
system.cpu.dcache.ReadReq_avg_mshr_miss_latency::.cpu.data 74993.657505                       # average ReadReq mshr miss latency
system.cpu.dcache.ReadReq_avg_mshr_miss_latency::total 74993.657505                       # average ReadReq mshr miss latency
system.cpu.dcache.WriteReq_hits::.cpu.data        66046                       # number of WriteReq hits
system.cpu.dcache.WriteReq_hits::total          66046                       # number of WriteReq hits
system.cpu.dcache.WriteReq_misses::.cpu.data         1138                       # number of WriteReq misses
system.cpu.dcache.WriteReq_misses::total         1138                       # number of WriteReq misses
system.cpu.dcache.WriteReq_miss_latency::.cpu.data     86454500                       # number of WriteReq miss cycles
system.cpu.dcache.WriteReq_miss_latency::total     86454500                       # number of WriteReq miss cycles
system.cpu.dcache.WriteReq_accesses::.cpu.data        67184                       # number of WriteReq accesses(hits+misses)
system.cpu.dcache.WriteReq_accesses::total        67184                       # number of WriteReq accesses(hits+misses)
system.cpu.dcache.WriteReq_miss_rate::.cpu.data     0.016939                       # miss rate for WriteReq accesses
system.cpu.dcache.WriteReq_miss_rate::total     0.016939                       # miss rate for WriteReq accesses
system.cpu.dcache.WriteReq_avg_miss_latency::.cpu.data 75970.562390                       # average WriteReq miss latency
system.cpu.dcache.WriteReq_avg_miss_latency::total 75970.562390                       # average WriteReq miss latency
system.cpu.dcache.WriteReq_mshr_misses::.cpu.data         1138                       # number of WriteReq MSHR misses
system.cpu.dcache.WriteReq_mshr_misses::total         1138                       # number of WriteReq MSHR misses
system.cpu.dcache.WriteReq_mshr_miss_latency::.cpu.data     85316500                       # number of WriteReq MSHR miss cycles
system.cpu.dcache.WriteReq_mshr_miss_latency::total     85316500                       # number of WriteReq MSHR miss cycles
system.cpu.dcache.WriteReq_mshr_miss_rate::.cpu.data     0.016939                       # mshr miss rate for WriteReq accesses
system.cpu.dcache.WriteReq_mshr_miss_rate::total     0.016939                       # mshr miss rate for WriteReq accesses
system.cpu.dcache.WriteReq_avg_mshr_miss_latency::.cpu.data 74970.562390                       # average WriteReq mshr miss latency
system.cpu.dcache.WriteReq_avg_mshr_miss_latency::total 74970.562390                       # average WriteReq mshr miss latency
system.cpu.dcache.power_state.pwrStateResidencyTicks::UNDEFINED   1463610500                       # Cumulative time (in ticks) in various power states
system.cpu.dcache.tags.tagsinuse          2952.442119                       # Cycle average of tags in use
system.cpu.dcache.tags.total_refs              219746                       # Total number of references to valid blocks.
system.cpu.dcache.tags.sampled_refs              5395                       # Sample count of references to valid blocks.
system.cpu.dcache.tags.avg_refs             40.731418                       # Average number of references to valid blocks.
system.cpu.dcache.tags.warmup_cycle            174500                       # Cycle when the warmup percentage was hit.
system.cpu.dcache.tags.occ_blocks::.cpu.data  2952.442119                       # Average occupied blocks per requestor
system.cpu.dcache.tags.occ_percent::.cpu.data     0.720811                       # Average percentage of cache occupancy
system.cpu.dcache.tags.occ_percent::total     0.720811                       # Average percentage of cache occupancy
system.cpu.dcache.tags.occ_task_id_blocks::1024         3884                       # Occupied blocks per task id
system.cpu.dcache.tags.age_task_id_blocks_1024::0           28                       # Occupied blocks per task id
system.cpu.dcache.tags.age_task_id_blocks_1024::1           18                       # Occupied blocks per task id
system.cpu.dcache.tags.age_task_id_blocks_1024::2         2312                       # Occupied blocks per task id
system.cpu.dcache.tags.age_task_id_blocks_1024::3         1526                       # Occupied blocks per task id
system.cpu.dcache.tags.occ_task_id_percent::1024     0.948242                       # Percentage of cache occupancy per task id
system.cpu.dcache.tags.tag_accesses            444887                       # Number of tag accesses
system.cpu.dcache.tags.data_accesses           444887                       # Number of data accesses
system.cpu.dcache.tags.power_state.pwrStateResidencyTicks::UNDEFINED   1463610500                       # Cumulative time (in ticks) in various power states
system.cpu.dtb.rdAccesses                      152635                       # TLB accesses on read requests
system.cpu.dtb.wrAccesses                       67201                       # TLB accesses on write requests
system.cpu.dtb.rdMisses                           234                       # TLB misses on read requests
system.cpu.dtb.wrMisses                            43                       # TLB misses on write requests
system.cpu.dtb.walker.power_state.pwrStateResidencyTicks::UNDEFINED   1463610500                       # Cumulative time (in ticks) in various power states
system.cpu.dtb_walker_cache.blocked_cycles::no_mshrs            0                       # number of cycles access was blocked
system.cpu.dtb_walker_cache.blocked_cycles::no_targets            0                       # number of cycles access was blocked
system.cpu.dtb_walker_cache.blocked::no_mshrs            0                       # number of cycles access was blocked
system.cpu.dtb_walker_cache.blocked::no_targets            0                       # number of cycles access was blocked
system.cpu.dtb_walker_cache.avg_blocked_cycles::no_mshrs          nan                       # average number of cycles each access was blocked
system.cpu.dtb_walker_cache.avg_blocked_cycles::no_targets          nan                       # average number of cycles each access was blocked
system.cpu.dtb_walker_cache.replacements            0                       # number of replacements
system.cpu.dtb_walker_cache.power_state.pwrStateResidencyTicks::UNDEFINED   1463610500                       # Cumulative time (in ticks) in various power states
system.cpu.dtb_walker_cache.tags.tagsinuse            0                       # Cycle average of tags in use
system.cpu.dtb_walker_cache.tags.total_refs            0                       # Total number of references to valid blocks.
system.cpu.dtb_walker_cache.tags.sampled_refs            0                       # Sample count of references to valid blocks.
system.cpu.dtb_walker_cache.tags.avg_refs          nan                       # Average number of references to valid blocks.
system.cpu.dtb_walker_cache.tags.warmup_cycle            0                       # Cycle when the warmup percentage was hit.
system.cpu.dtb_walker_cache.tags.tag_accesses            0                       # Number of tag accesses
system.cpu.dtb_walker_cache.tags.data_accesses            0                       # Number of data accesses
system.cpu.dtb_walker_cache.tags.power_state.pwrStateResidencyTicks::UNDEFINED   1463610500                       # Cumulative time (in ticks) in various power states
system.cpu.icache.demand_hits::.cpu.inst       640348                       # number of demand (read+write) hits
system.cpu.icache.demand_hits::total           640348                       # number of demand (read+write) hits
system.cpu.icache.overall_hits::.cpu.inst       640348                       # number of overall hits
system.cpu.icache.overall_hits::total          640348                       # number of overall hits
system.cpu.icache.demand_misses::.cpu.inst         2648                       # number of demand (read+write) misses
system.cpu.icache.demand_misses::total           2648                       # number of demand (read+write) misses
system.cpu.icache.overall_misses::.cpu.inst         2648                       # number of overall misses
system.cpu.icache.overall_misses::total          2648                       # number of overall misses
system.cpu.icache.demand_miss_latency::.cpu.inst    203056000                       # number of demand (read+write) miss cycles
system.cpu.icache.demand_miss_latency::total    203056000                       # number of demand (read+write) miss cycles
system.cpu.icache.overall_miss_latency::.cpu.inst    203056000                       # number of overall miss cycles
system.cpu.icache.overall_miss_latency::total    203056000                       # number of overall miss cycles
system.cpu.icache.demand_accesses::.cpu.inst       642996                       # number of demand (read+write) accesses
system.cpu.icache.demand_accesses::total       642996                       # number of demand (read+write) accesses
system.cpu.icache.overall_accesses::.cpu.inst       642996                       # number of overall (read+write) accesses
system.cpu.icache.overall_accesses::total       642996                       # number of overall (read+write) accesses
system.cpu.icache.demand_miss_rate::.cpu.inst     0.004118                       # miss rate for demand accesses
system.cpu.icache.demand_miss_rate::total     0.004118                       # miss rate for demand accesses
system.cpu.icache.overall_miss_rate::.cpu.inst     0.004118                       # miss rate for overall accesses
system.cpu.icache.overall_miss_rate::total     0.004118                       # miss rate for overall accesses
system.cpu.icache.demand_avg_miss_latency::.cpu.inst 76682.779456                       # average overall miss latency
system.cpu.icache.demand_avg_miss_latency::total 76682.779456                       # average overall miss latency
system.cpu.icache.overall_avg_miss_latency::.cpu.inst 76682.779456                       # average overall miss latency
system.cpu.icache.overall_avg_miss_latency::total 76682.779456                       # average overall miss latency
system.cpu.icache.blocked_cycles::no_mshrs            0                       # number of cycles access was blocked
system.cpu.icache.blocked_cycles::no_targets            0                       # number of cycles access was blocked
system.cpu.icache.blocked::no_mshrs                 0                       # number of cycles access was blocked
system.cpu.icache.blocked::no_targets               0                       # number of cycles access was blocked
system.cpu.icache.avg_blocked_cycles::no_mshrs          nan                       # average number of cycles each access was blocked
system.cpu.icache.avg_blocked_cycles::no_targets          nan                       # average number of cycles each access was blocked
system.cpu.icache.writebacks::.writebacks          306                       # number of writebacks
system.cpu.icache.writebacks::total               306                       # number of writebacks
system.cpu.icache.demand_mshr_misses::.cpu.inst         2648                       # number of demand (read+write) MSHR misses
system.cpu.icache.demand_mshr_misses::total         2648                       # number of demand (read+write) MSHR misses
system.cpu.icache.overall_mshr_misses::.cpu.inst         2648                       # number of overall MSHR misses
system.cpu.icache.overall_mshr_misses::total         2648                       # number of overall MSHR misses
system.cpu.icache.demand_mshr_miss_latency::.cpu.inst    200408000                       # number of demand (read+write) MSHR miss cycles
system.cpu.icache.demand_mshr_miss_latency::total    200408000                       # number of demand (read+write) MSHR miss cycles
system.cpu.icache.overall_mshr_miss_latency::.cpu.inst    200408000                       # number of overall MSHR miss cycles
system.cpu.icache.overall_mshr_miss_latency::total    200408000                       # number of overall MSHR miss cycles
system.cpu.icache.demand_mshr_miss_rate::.cpu.inst     0.004118                       # mshr miss rate for demand accesses
system.cpu.icache.demand_mshr_miss_rate::total     0.004118                       # mshr miss rate for demand accesses
system.cpu.icache.overall_mshr_miss_rate::.cpu.inst     0.004118                       # mshr miss rate for overall accesses
system.cpu.icache.overall_mshr_miss_rate::total     0.004118                       # mshr miss rate for overall accesses
system.cpu.icache.demand_avg_mshr_miss_latency::.cpu.inst 75682.779456                       # average overall mshr miss latency
system.cpu.icache.demand_avg_mshr_miss_latency::total 75682.779456                       # average overall mshr miss latency
system.cpu.icache.overall_avg_mshr_miss_latency::.cpu.inst 75682.779456                       # average overall mshr miss latency
system.cpu.icache.overall_avg_mshr_miss_latency::total 75682.779456                       # average overall mshr miss latency
system.cpu.icache.replacements                    306                       # number of replacements
system.cpu.icache.ReadReq_hits::.cpu.inst       640348                       # number of ReadReq hits
system.cpu.icache.ReadReq_hits::total          640348                       # number of ReadReq hits
system.cpu.icache.ReadReq_misses::.cpu.inst         2648                       # number of ReadReq misses
system.cpu.icache.ReadReq_misses::total          2648                       # number of ReadReq misses
system.cpu.icache.ReadReq_miss_latency::.cpu.inst    203056000                       # number of ReadReq miss cycles
system.cpu.icache.ReadReq_miss_latency::total    203056000                       # number of ReadReq miss cycles
system.cpu.icache.ReadReq_accesses::.cpu.inst       642996                       # number of ReadReq accesses(hits+misses)
system.cpu.icache.ReadReq_accesses::total       642996                       # number of ReadReq accesses(hits+misses)
system.cpu.icache.ReadReq_miss_rate::.cpu.inst     0.004118                       # miss rate for ReadReq accesses
system.cpu.icache.ReadReq_miss_rate::total     0.004118                       # miss rate for ReadReq accesses
system.cpu.icache.ReadReq_avg_miss_latency::.cpu.inst 76682.779456                       # average ReadReq miss latency
system.cpu.icache.ReadReq_avg_miss_latency::total 76682.779456                       # average ReadReq miss latency
system.cpu.icache.ReadReq_mshr_misses::.cpu.inst         2648                       # number of ReadReq MSHR misses
system.cpu.icache.ReadReq_mshr_misses::total         2648                       # number of ReadReq MSHR misses
system.cpu.icache.ReadReq_mshr_miss_latency::.cpu.inst    200408000                       # number of ReadReq MSHR miss cycles
system.cpu.icache.ReadReq_mshr_miss_latency::total    200408000                       # number of ReadReq MSHR miss cycles
system.cpu.icache.ReadReq_mshr_miss_rate::.cpu.inst     0.004118                       # mshr miss rate for ReadReq accesses
system.cpu.icache.ReadReq_mshr_miss_rate::total     0.004118                       # mshr miss rate for ReadReq accesses
system.cpu.icache.ReadReq_avg_mshr_miss_latency::.cpu.inst 75682.779456                       # average ReadReq mshr miss latency
system.cpu.icache.ReadReq_avg_mshr_miss_latency::total 75682.779456                       # average ReadReq mshr miss latency
system.cpu.icache.power_state.pwrStateResidencyTicks::UNDEFINED   1463610500                       # Cumulative time (in ticks) in various power states
system.cpu.icache.tags.tagsinuse          1506.573082                       # Cycle average of tags in use
system.cpu.icache.tags.total_refs              642996                       # Total number of references to valid blocks.
system.cpu.icache.tags.sampled_refs              2648                       # Sample count of references to valid blocks.
system.cpu.icache.tags.avg_refs            242.823263                       # Average number of references to valid blocks.
system.cpu.icache.tags.warmup_cycle             87500                       # Cycle when the warmup percentage was hit.
system.cpu.icache.tags.occ_blocks::.cpu.inst  1506.573082                       # Average occupied blocks per requestor
system.cpu.icache.tags.occ_percent::.cpu.inst     0.367816                       # Average percentage of cache occupancy
system.cpu.icache.tags.occ_percent::total     0.367816                       # Average percentage of cache occupancy
system.cpu.icache.tags.occ_task_id_blocks::1024         2342                       # Occupied blocks per task id
system.cpu.icache.tags.age_task_id_blocks_1024::0           90                       # Occupied blocks per task id
system.cpu.icache.tags.age_task_id_blocks_1024::1          230                       # Occupied blocks per task id
system.cpu.icache.tags.age_task_id_blocks_1024::2         1108                       # Occupied blocks per task id
system.cpu.icache.tags.age_task_id_blocks_1024::3          914                       # Occupied blocks per task id
system.cpu.icache.tags.occ_task_id_percent::1024     0.571777                       # Percentage of cache occupancy per task id
system.cpu.icache.tags.tag_accesses           1288640                       # Number of tag accesses
system.cpu.icache.tags.data_accesses          1288640                       # Number of data accesses
system.cpu.icache.tags.power_state.pwrStateResidencyTicks::UNDEFINED   1463610500                       # Cumulative time (in ticks) in various power states
system.cpu.interrupts.clk_domain.clock           8000                       # Clock period in ticks
system.cpu.itb.rdAccesses                           0                       # TLB accesses on read requests
system.cpu.itb.wrAccesses                      643074                       # TLB accesses on write requests
system.cpu.itb.rdMisses                             0                       # TLB misses on read requests
system.cpu.itb.wrMisses                           262                       # TLB misses on write requests
system.cpu.itb.walker.power_state.pwrStateResidencyTicks::UNDEFINED   1463610500                       # Cumulative time (in ticks) in various power states
system.cpu.itb_walker_cache.blocked_cycles::no_mshrs            0                       # number of cycles access was blocked
system.cpu.itb_walker_cache.blocked_cycles::no_targets            0                       # number of cycles access was blocked
system.cpu.itb_walker_cache.blocked::no_mshrs            0                       # number of cycles access was blocked
system.cpu.itb_walker_cache.blocked::no_targets            0                       # number of cycles access was blocked
system.cpu.itb_walker_cache.avg_blocked_cycles::no_mshrs          nan                       # average number of cycles each access was blocked
system.cpu.itb_walker_cache.avg_blocked_cycles::no_targets          nan                       # average number of cycles each access was blocked
system.cpu.itb_walker_cache.replacements            0                       # number of replacements
system.cpu.itb_walker_cache.power_state.pwrStateResidencyTicks::UNDEFINED   1463610500                       # Cumulative time (in ticks) in various power states
system.cpu.itb_walker_cache.tags.tagsinuse            0                       # Cycle average of tags in use
system.cpu.itb_walker_cache.tags.total_refs            0                       # Total number of references to valid blocks.
system.cpu.itb_walker_cache.tags.sampled_refs            0                       # Sample count of references to valid blocks.
system.cpu.itb_walker_cache.tags.avg_refs          nan                       # Average number of references to valid blocks.
system.cpu.itb_walker_cache.tags.warmup_cycle            0                       # Cycle when the warmup percentage was hit.
system.cpu.itb_walker_cache.tags.tag_accesses            0                       # Number of tag accesses
system.cpu.itb_walker_cache.tags.data_accesses            0                       # Number of data accesses
system.cpu.itb_walker_cache.tags.power_state.pwrStateResidencyTicks::UNDEFINED   1463610500                       # Cumulative time (in ticks) in various power states
system.cpu.power_state.pwrStateResidencyTicks::ON   1463610500                       # Cumulative time (in ticks) in various power states
system.cpu.thread_0.numInsts                        0                       # Number of Instructions committed
system.cpu.thread_0.numOps                          0                       # Number of Ops committed
system.cpu.thread_0.numMemRefs                      0                       # Number of Memory References
system.cpu_clk_domain.clock                       500                       # Clock period in ticks
system.cpu_voltage_domain.voltage                   1                       # Voltage in Volts
system.l2.demand_hits::.cpu.inst                    5                       # number of demand (read+write) hits
system.l2.demand_hits::.cpu.data                  154                       # number of demand (read+write) hits
system.l2.demand_hits::total                      159                       # number of demand (read+write) hits
system.l2.overall_hits::.cpu.inst                   5                       # number of overall hits
system.l2.overall_hits::.cpu.data                 154                       # number of overall hits
system.l2.overall_hits::total                     159                       # number of overall hits
system.l2.demand_misses::.cpu.inst               2643                       # number of demand (read+write) misses
system.l2.demand_misses::.cpu.data               5241                       # number of demand (read+write) misses
system.l2.demand_misses::total                   7884                       # number of demand (read+write) misses
system.l2.overall_misses::.cpu.inst              2643                       # number of overall misses
system.l2.overall_misses::.cpu.data              5241                       # number of overall misses
system.l2.overall_misses::total                  7884                       # number of overall misses
system.l2.demand_miss_latency::.cpu.inst    196383500                       # number of demand (read+write) miss cycles
system.l2.demand_miss_latency::.cpu.data    394854000                       # number of demand (read+write) miss cycles
system.l2.demand_miss_latency::total        591237500                       # number of demand (read+write) miss cycles
system.l2.overall_miss_latency::.cpu.inst    196383500                       # number of overall miss cycles
system.l2.overall_miss_latency::.cpu.data    394854000                       # number of overall miss cycles
system.l2.overall_miss_latency::total       591237500                       # number of overall miss cycles
system.l2.demand_accesses::.cpu.inst             2648                       # number of demand (read+write) accesses
system.l2.demand_accesses::.cpu.data             5395                       # number of demand (read+write) accesses
system.l2.demand_accesses::total                 8043                       # number of demand (read+write) accesses
system.l2.overall_accesses::.cpu.inst            2648                       # number of overall (read+write) accesses
system.l2.overall_accesses::.cpu.data            5395                       # number of overall (read+write) accesses
system.l2.overall_accesses::total                8043                       # number of overall (read+write) accesses
system.l2.demand_miss_rate::.cpu.inst        0.998112                       # miss rate for demand accesses
system.l2.demand_miss_rate::.cpu.data        0.971455                       # miss rate for demand accesses
system.l2.demand_miss_rate::total            0.980231                       # miss rate for demand accesses
system.l2.overall_miss_rate::.cpu.inst       0.998112                       # miss rate for overall accesses
system.l2.overall_miss_rate::.cpu.data       0.971455                       # miss rate for overall accesses
system.l2.overall_miss_rate::total           0.980231                       # miss rate for overall accesses
system.l2.demand_avg_miss_latency::.cpu.inst 74303.253878                       # average overall miss latency
system.l2.demand_avg_miss_latency::.cpu.data 75339.439038                       # average overall miss latency
system.l2.demand_avg_miss_latency::total 74992.072552                       # average overall miss latency
system.l2.overall_avg_miss_latency::.cpu.inst 74303.253878                       # average overall miss latency
system.l2.overall_avg_miss_latency::.cpu.data 75339.439038                       # average overall miss latency
system.l2.overall_avg_miss_latency::total 74992.072552                       # average overall miss latency
system.l2.blocked_cycles::no_mshrs                  0                       # number of cycles access was blocked
system.l2.blocked_cycles::no_targets                0                       # number of cycles access was blocked
system.l2.blocked::no_mshrs                         0                       # number of cycles access was blocked
system.l2.blocked::no_targets                       0                       # number of cycles access was blocked
system.l2.avg_blocked_cycles::no_mshrs            nan                       # average number of cycles each access was blocked
system.l2.avg_blocked_cycles::no_targets          nan                       # average number of cycles each access was blocked
system.l2.writebacks::.writebacks                  66                       # number of writebacks
system.l2.writebacks::total                        66                       # number of writebacks
system.l2.demand_mshr_misses::.cpu.inst          2643                       # number of demand (read+write) MSHR misses
system.l2.demand_mshr_misses::.cpu.data          5241                       # number of demand (read+write) MSHR misses
system.l2.demand_mshr_misses::total              7884                       # number of demand (read+write) MSHR misses
system.l2.overall_mshr_misses::.cpu.inst         2643                       # number of overall MSHR misses
system.l2.overall_mshr_misses::.cpu.data         5241                       # number of overall MSHR misses
system.l2.overall_mshr_misses::total             7884                       # number of overall MSHR misses
system.l2.demand_mshr_miss_latency::.cpu.inst    169953500                       # number of demand (read+write) MSHR miss cycles
system.l2.demand_mshr_miss_latency::.cpu.data    342444000                       # number of demand (read+write) MSHR miss cycles
system.l2.demand_mshr_miss_latency::total    512397500                       # number of demand (read+write) MSHR miss cycles
system.l2.overall_mshr_miss_latency::.cpu.inst    169953500                       # number of overall MSHR miss cycles
system.l2.overall_mshr_miss_latency::.cpu.data    342444000                       # number of overall MSHR miss cycles
system.l2.overall_mshr_miss_latency::total    512397500                       # number of overall MSHR miss cycles
system.l2.demand_mshr_miss_rate::.cpu.inst     0.998112                       # mshr miss rate for demand accesses
system.l2.demand_mshr_miss_rate::.cpu.data     0.971455                       # mshr miss rate for demand accesses
system.l2.demand_mshr_miss_rate::total       0.980231                       # mshr miss rate for demand accesses
system.l2.overall_mshr_miss_rate::.cpu.inst     0.998112                       # mshr miss rate for overall accesses
system.l2.overall_mshr_miss_rate::.cpu.data     0.971455                       # mshr miss rate for overall accesses
system.l2.overall_mshr_miss_rate::total      0.980231                       # mshr miss rate for overall accesses
system.l2.demand_avg_mshr_miss_latency::.cpu.inst 64303.253878                       # average overall mshr miss latency
system.l2.demand_avg_mshr_miss_latency::.cpu.data 65339.439038                       # average overall mshr miss latency
system.l2.demand_avg_mshr_miss_latency::total 64992.072552                       # average overall mshr miss latency
system.l2.overall_avg_mshr_miss_latency::.cpu.inst 64303.253878                       # average overall mshr miss latency
system.l2.overall_avg_mshr_miss_latency::.cpu.data 65339.439038                       # average overall mshr miss latency
system.l2.overall_avg_mshr_miss_latency::total 64992.072552                       # average overall mshr miss latency
system.l2.replacements                           1716                       # number of replacements
system.l2.WritebackDirty_hits::.writebacks          557                       # number of WritebackDirty hits
system.l2.WritebackDirty_hits::total              557                       # number of WritebackDirty hits
system.l2.WritebackDirty_accesses::.writebacks          557                       # number of WritebackDirty accesses(hits+misses)
system.l2.WritebackDirty_accesses::total          557                       # number of WritebackDirty accesses(hits+misses)
system.l2.WritebackClean_hits::.writebacks          306                       # number of WritebackClean hits
system.l2.WritebackClean_hits::total              306                       # number of WritebackClean hits
system.l2.WritebackClean_accesses::.writebacks          306                       # number of WritebackClean accesses(hits+misses)
system.l2.WritebackClean_accesses::total          306                       # number of WritebackClean accesses(hits+misses)
system.l2.CleanEvict_mshr_misses::.writebacks          198                       # number of CleanEvict MSHR misses
system.l2.CleanEvict_mshr_misses::total           198                       # number of CleanEvict MSHR misses
system.l2.CleanEvict_mshr_miss_rate::.writebacks          inf                       # mshr miss rate for CleanEvict accesses
system.l2.CleanEvict_mshr_miss_rate::total          inf                       # mshr miss rate for CleanEvict accesses
system.l2.ReadExReq_hits::.cpu.data                20                       # number of ReadExReq hits
system.l2.ReadExReq_hits::total                    20                       # number of ReadExReq hits
system.l2.ReadExReq_misses::.cpu.data            1118                       # number of ReadExReq misses
system.l2.ReadExReq_misses::total                1118                       # number of ReadExReq misses
system.l2.ReadExReq_miss_latency::.cpu.data     83399500                       # number of ReadExReq miss cycles
system.l2.ReadExReq_miss_latency::total      83399500                       # number of ReadExReq miss cycles
system.l2.ReadExReq_accesses::.cpu.data          1138                       # number of ReadExReq accesses(hits+misses)
system.l2.ReadExReq_accesses::total              1138                       # number of ReadExReq accesses(hits+misses)
system.l2.ReadExReq_miss_rate::.cpu.data     0.982425                       # miss rate for ReadExReq accesses
system.l2.ReadExReq_miss_rate::total         0.982425                       # miss rate for ReadExReq accesses
system.l2.ReadExReq_avg_miss_latency::.cpu.data 74597.048301                       # average ReadExReq miss latency
system.l2.ReadExReq_avg_miss_latency::total 74597.048301                       # average ReadExReq miss latency
system.l2.ReadExReq_mshr_misses::.cpu.data         1118                       # number of ReadExReq MSHR misses
system.l2.ReadExReq_mshr_misses::total           1118                       # number of ReadExReq MSHR misses
system.l2.ReadExReq_mshr_miss_latency::.cpu.data     72219500                       # number of ReadExReq MSHR miss cycles
system.l2.ReadExReq_mshr_miss_latency::total     72219500                       # number of ReadExReq MSHR miss cycles
system.l2.ReadExReq_mshr_miss_rate::.cpu.data     0.982425                       # mshr miss rate for ReadExReq accesses
system.l2.ReadExReq_mshr_miss_rate::total     0.982425                       # mshr miss rate for ReadExReq accesses
system.l2.ReadExReq_avg_mshr_miss_latency::.cpu.data 64597.048301                       # average ReadExReq mshr miss latency
system.l2.ReadExReq_avg_mshr_miss_latency::total 64597.048301                       # average ReadExReq mshr miss latency
system.l2.ReadCleanReq_hits::.cpu.inst              5                       # number of ReadCleanReq hits
system.l2.ReadCleanReq_hits::total                  5                       # number of ReadCleanReq hits
system.l2.ReadCleanReq_misses::.cpu.inst         2643                       # number of ReadCleanReq misses
system.l2.ReadCleanReq_misses::total             2643                       # number of ReadCleanReq misses
system.l2.ReadCleanReq_miss_latency::.cpu.inst    196383500                       # number of ReadCleanReq miss cycles
system.l2.ReadCleanReq_miss_latency::total    196383500                       # number of ReadCleanReq miss cycles
system.l2.ReadCleanReq_accesses::.cpu.inst         2648                       # number of ReadCleanReq accesses(hits+misses)
system.l2.ReadCleanReq_accesses::total           2648                       # number of ReadCleanReq accesses(hits+misses)
system.l2.ReadCleanReq_miss_rate::.cpu.inst     0.998112                       # miss rate for ReadCleanReq accesses
system.l2.ReadCleanReq_miss_rate::total      0.998112                       # miss rate for ReadCleanReq accesses
system.l2.ReadCleanReq_avg_miss_latency::.cpu.inst 74303.253878                       # average ReadCleanReq miss latency
system.l2.ReadCleanReq_avg_miss_latency::total 74303.253878                       # average ReadCleanReq miss latency
system.l2.ReadCleanReq_mshr_misses::.cpu.inst         2643                       # number of ReadCleanReq MSHR misses
system.l2.ReadCleanReq_mshr_misses::total         2643                       # number of ReadCleanReq MSHR misses
system.l2.ReadCleanReq_mshr_miss_latency::.cpu.inst    169953500                       # number of ReadCleanReq MSHR miss cycles
system.l2.ReadCleanReq_mshr_miss_latency::total    169953500                       # number of ReadCleanReq MSHR miss cycles
system.l2.ReadCleanReq_mshr_miss_rate::.cpu.inst     0.998112                       # mshr miss rate for ReadCleanReq accesses
system.l2.ReadCleanReq_mshr_miss_rate::total     0.998112                       # mshr miss rate for ReadCleanReq accesses
system.l2.ReadCleanReq_avg_mshr_miss_latency::.cpu.inst 64303.253878                       # average ReadCleanReq mshr miss latency
system.l2.ReadCleanReq_avg_mshr_miss_latency::total 64303.253878                       # average ReadCleanReq mshr miss latency
system.l2.ReadSharedReq_hits::.cpu.data           134                       # number of ReadSharedReq hits
system.l2.ReadSharedReq_hits::total               134                       # number of ReadSharedReq hits
system.l2.ReadSharedReq_misses::.cpu.data         4123                       # number of ReadSharedReq misses
system.l2.ReadSharedReq_misses::total            4123                       # number of ReadSharedReq misses
system.l2.ReadSharedReq_miss_latency::.cpu.data    311454500                       # number of ReadSharedReq miss cycles
system.l2.ReadSharedReq_miss_latency::total    311454500                       # number of ReadSharedReq miss cycles
system.l2.ReadSharedReq_accesses::.cpu.data         4257                       # number of ReadSharedReq accesses(hits+misses)
system.l2.ReadSharedReq_accesses::total          4257                       # number of ReadSharedReq accesses(hits+misses)
system.l2.ReadSharedReq_miss_rate::.cpu.data     0.968522                       # miss rate for ReadSharedReq accesses
system.l2.ReadSharedReq_miss_rate::total     0.968522                       # miss rate for ReadSharedReq accesses
system.l2.ReadSharedReq_avg_miss_latency::.cpu.data 75540.747029                       # average ReadSharedReq miss latency
system.l2.ReadSharedReq_avg_miss_latency::total 75540.747029                       # average ReadSharedReq miss latency
system.l2.ReadSharedReq_mshr_misses::.cpu.data         4123                       # number of ReadSharedReq MSHR misses
system.l2.ReadSharedReq_mshr_misses::total         4123                       # number of ReadSharedReq MSHR misses
system.l2.ReadSharedReq_mshr_miss_latency::.cpu.data    270224500                       # number of ReadSharedReq MSHR miss cycles
system.l2.ReadSharedReq_mshr_miss_latency::total    270224500                       # number of ReadSharedReq MSHR miss cycles
system.l2.ReadSharedReq_mshr_miss_rate::.cpu.data     0.968522                       # mshr miss rate for ReadSharedReq accesses
system.l2.ReadSharedReq_mshr_miss_rate::total     0.968522                       # mshr miss rate for ReadSharedReq accesses
system.l2.ReadSharedReq_avg_mshr_miss_latency::.cpu.data 65540.747029                       # average ReadSharedReq mshr miss latency
system.l2.ReadSharedReq_avg_mshr_miss_latency::total 65540.747029                       # average ReadSharedReq mshr miss latency
system.l2.power_state.pwrStateResidencyTicks::UNDEFINED   1463610500                       # Cumulative time (in ticks) in various power states
system.l2.tags.tagsinuse                  4662.826139                       # Cycle average of tags in use
system.l2.tags.total_refs                        9662                       # Total number of references to valid blocks.
system.l2.tags.sampled_refs                      8241                       # Sample count of references to valid blocks.
system.l2.tags.avg_refs                      1.172431                       # Average number of references to valid blocks.
system.l2.tags.warmup_cycle                     77000                       # Cycle when the warmup percentage was hit.
system.l2.tags.occ_blocks::.writebacks     135.048304                       # Average occupied blocks per requestor
system.l2.tags.occ_blocks::.cpu.inst      1313.206894                       # Average occupied blocks per requestor
system.l2.tags.occ_blocks::.cpu.data      3214.570941                       # Average occupied blocks per requestor
system.l2.tags.occ_percent::.writebacks      0.016485                       # Average percentage of cache occupancy
system.l2.tags.occ_percent::.cpu.inst        0.160304                       # Average percentage of cache occupancy
system.l2.tags.occ_percent::.cpu.data        0.392404                       # Average percentage of cache occupancy
system.l2.tags.occ_percent::total            0.569193                       # Average percentage of cache occupancy
system.l2.tags.occ_task_id_blocks::1024          6525                       # Occupied blocks per task id
system.l2.tags.age_task_id_blocks_1024::0          113                       # Occupied blocks per task id
system.l2.tags.age_task_id_blocks_1024::1          309                       # Occupied blocks per task id
system.l2.tags.age_task_id_blocks_1024::2         3379                       # Occupied blocks per task id
system.l2.tags.age_task_id_blocks_1024::3         2724                       # Occupied blocks per task id
system.l2.tags.occ_task_id_percent::1024     0.796509                       # Percentage of cache occupancy per task id
system.l2.tags.tag_accesses                     27961                       # Number of tag accesses
system.l2.tags.data_accesses                    27961                       # Number of data accesses
system.l2.tags.power_state.pwrStateResidencyTicks::UNDEFINED   1463610500                       # Cumulative time (in ticks) in various power states
system.mem_ctrls.avgPriority_.writebacks::samples        56.00                       # Average QoS priority value for accepted requests
system.mem_ctrls.avgPriority_.cpu.inst::samples      2643.00                       # Average QoS priority value for accepted requests
system.mem_ctrls.avgPriority_.cpu.data::samples      5240.00                       # Average QoS priority value for accepted requests
system.mem_ctrls.priorityMinLatency      0.000000018750                       # per QoS priority minimum request to response latency (s)
system.mem_ctrls.priorityMaxLatency      0.001638841750                       # per QoS priority maximum request to response latency (s)
system.mem_ctrls.numReadWriteTurnArounds            2                       # Number of turnarounds from READ to WRITE
system.mem_ctrls.numWriteReadTurnArounds            2                       # Number of turnarounds from WRITE to READ
system.mem_ctrls.numStayReadState               16205                       # Number of times bus staying in READ state
system.mem_ctrls.numStayWriteState                 32                       # Number of times bus staying in WRITE state
system.mem_ctrls.readReqs                        7884                       # Number of read requests accepted
system.mem_ctrls.writeReqs                         66                       # Number of write requests accepted
system.mem_ctrls.readBursts                      7884                       # Number of controller read bursts, including those serviced by the write queue
system.mem_ctrls.writeBursts                       66                       # Number of controller write bursts, including those merged in the write queue
system.mem_ctrls.servicedByWrQ                      1                       # Number of controller read bursts serviced by the write queue
system.mem_ctrls.mergedWrBursts                    10                       # Number of controller write bursts merged with an existing one
system.mem_ctrls.neitherReadNorWriteReqs            0                       # Number of requests that are neither read nor write
system.mem_ctrls.avgRdQLen                       1.00                       # Average read queue length when enqueuing
system.mem_ctrls.avgWrQLen                      12.24                       # Average write queue length when enqueuing
system.mem_ctrls.numRdRetry                         0                       # Number of times read queue was full causing retry
system.mem_ctrls.numWrRetry                         0                       # Number of times write queue was full causing retry
system.mem_ctrls.readPktSize::0                     0                       # Read request sizes (log2)
system.mem_ctrls.readPktSize::1                     0                       # Read request sizes (log2)
system.mem_ctrls.readPktSize::2                     0                       # Read request sizes (log2)
system.mem_ctrls.readPktSize::3                     0                       # Read request sizes (log2)
system.mem_ctrls.readPktSize::4                     0                       # Read request sizes (log2)
system.mem_ctrls.readPktSize::5                  7884                       # Read request sizes (log2)
system.mem_ctrls.writePktSize::0                    0                       # Write request sizes (log2)
system.mem_ctrls.writePktSize::1                    0                       # Write request sizes (log2)
system.mem_ctrls.writePktSize::2                    0                       # Write request sizes (log2)
system.mem_ctrls.writePktSize::3                    0                       # Write request sizes (log2)
system.mem_ctrls.writePktSize::4                    0                       # Write request sizes (log2)
system.mem_ctrls.writePktSize::5                   66                       # Write request sizes (log2)
system.mem_ctrls.rdQLenPdf::0                    7881                       # What read queue length does an incoming req see
system.mem_ctrls.rdQLenPdf::1                       2                       # What read queue length does an incoming req see
system.mem_ctrls.rdQLenPdf::2                       0                       # What read queue length does an incoming req see
system.mem_ctrls.rdQLenPdf::3                       0                       # What read queue length does an incoming req see
system.mem_ctrls.rdQLenPdf::4                       0                       # What read queue length does an incoming req see
system.mem_ctrls.rdQLenPdf::5                       0                       # What read queue length does an incoming req see
system.mem_ctrls.rdQLenPdf::6                       0                       # What read queue length does an incoming req see
system.mem_ctrls.rdQLenPdf::7                       0                       # What read queue length does an incoming req see
system.mem_ctrls.rdQLenPdf::8                       0                       # What read queue length does an incoming req see
system.mem_ctrls.rdQLenPdf::9                       0                       # What read queue length does an incoming req see
system.mem_ctrls.rdQLenPdf::10                      0                       # What read queue length does an incoming req see
system.mem_ctrls.rdQLenPdf::11                      0                       # What read queue length does an incoming req see
system.mem_ctrls.rdQLenPdf::12                      0                       # What read queue length does an incoming req see
system.mem_ctrls.rdQLenPdf::13                      0                       # What read queue length does an incoming req see
system.mem_ctrls.rdQLenPdf::14                      0                       # What read queue length does an incoming req see
system.mem_ctrls.rdQLenPdf::15                      0                       # What read queue length does an incoming req see
system.mem_ctrls.rdQLenPdf::16                      0                       # What read queue length does an incoming req see
system.mem_ctrls.rdQLenPdf::17                      0                       # What read queue length does an incoming req see
system.mem_ctrls.rdQLenPdf::18                      0                       # What read queue length does an incoming req see
system.mem_ctrls.rdQLenPdf::19                      0                       # What read queue length does an incoming req see
system.mem_ctrls.rdQLenPdf::20                      0                       # What read queue length does an incoming req see
system.mem_ctrls.rdQLenPdf::21                      0                       # What read queue length does an incoming req see
system.mem_ctrls.rdQLenPdf::22                      0                       # What read queue length does an incoming req see
system.mem_ctrls.rdQLenPdf::23                      0                       # What read queue length does an incoming req see
system.mem_ctrls.rdQLenPdf::24                      0                       # What read queue length does an incoming req see
system.mem_ctrls.rdQLenPdf::25                      0                       # What read queue length does an incoming req see
system.mem_ctrls.rdQLenPdf::26                      0                       # What read queue length does an incoming req see
system.mem_ctrls.rdQLenPdf::27                      0                       # What read queue length does an incoming req see
system.mem_ctrls.rdQLenPdf::28                      0                       # What read queue length does an incoming req see
system.mem_ctrls.rdQLenPdf::29                      0                       # What read queue length does an incoming req see
system.mem_ctrls.rdQLenPdf::30                      0                       # What read queue length does an incoming req see
system.mem_ctrls.rdQLenPdf::31                      0                       # What read queue length does an incoming req see
system.mem_ctrls.wrQLenPdf::0                       1                       # What write queue length does an incoming req see
system.mem_ctrls.wrQLenPdf::1                       1                       # What write queue length does an incoming req see
system.mem_ctrls.wrQLenPdf::2                       1                       # What write queue length does an incoming req see
system.mem_ctrls.wrQLenPdf::3                       1                       # What write queue length does an incoming req see
system.mem_ctrls.wrQLenPdf::4                       1                       # What write queue length does an incoming req see
system.mem_ctrls.wrQLenPdf::5                       1                       # What write queue length does an incoming req see
system.mem_ctrls.wrQLenPdf::6                       1                       # What write queue length does an incoming req see
system.mem_ctrls.wrQLenPdf::7                       1                       # What write queue length does an incoming req see
system.mem_ctrls.wrQLenPdf::8                       1                       # What write queue length does an incoming req see
system.mem_ctrls.wrQLenPdf::9                       1                       # What write queue length does an incoming req see
system.mem_ctrls.wrQLenPdf::10                      1                       # What write queue length does an incoming req see
system.mem_ctrls.wrQLenPdf::11                      1                       # What write queue length does an incoming req see
system.mem_ctrls.wrQLenPdf::12                      1                       # What write queue length does an incoming req see
system.mem_ctrls.wrQLenPdf::13                      1                       # What write queue length does an incoming req see
system.mem_ctrls.wrQLenPdf::14                      1                       # What write queue length does an incoming req see
system.mem_ctrls.wrQLenPdf::15                      2                       # What write queue length does an incoming req see
system.mem_ctrls.wrQLenPdf::16                      2                       # What write queue length does an incoming req see
system.mem_ctrls.wrQLenPdf::17                      3                       # What write queue length does an incoming req see
system.mem_ctrls.wrQLenPdf::18                      3                       # What write queue length does an incoming req see
system.mem_ctrls.wrQLenPdf::19                      3                       # What write queue length does an incoming req see
system.mem_ctrls.wrQLenPdf::20                      3                       # What write queue length does an incoming req see
system.mem_ctrls.wrQLenPdf::21                      3                       # What write queue length does an incoming req see
system.mem_ctrls.wrQLenPdf::22                      2                       # What write queue length does an incoming req see
system.mem_ctrls.wrQLenPdf::23                      2                       # What write queue length does an incoming req see
system.mem_ctrls.wrQLenPdf::24                      2                       # What write queue length does an incoming req see
system.mem_ctrls.wrQLenPdf::25                      2                       # What write queue length does an incoming req see
system.mem_ctrls.wrQLenPdf::26                      2                       # What write queue length does an incoming req see
system.mem_ctrls.wrQLenPdf::27                      2                       # What write queue length does an incoming req see
system.mem_ctrls.wrQLenPdf::28                      2                       # What write queue length does an incoming req see
system.mem_ctrls.wrQLenPdf::29                      2                       # What write queue length does an incoming req see
system.mem_ctrls.wrQLenPdf::30                      2                       # What write queue length does an incoming req see
system.mem_ctrls.wrQLenPdf::31                      2                       # What write queue length does an incoming req see
system.mem_ctrls.wrQLenPdf::32                      2                       # What write queue length does an incoming req see
system.mem_ctrls.wrQLenPdf::33                      0                       # What write queue length does an incoming req see
system.mem_ctrls.wrQLenPdf::34                      0                       # What write queue length does an incoming req see
system.mem_ctrls.wrQLenPdf::35                      0                       # What write queue length does an incoming req see
system.mem_ctrls.wrQLenPdf::36                      0                       # What write queue length does an incoming req see
system.mem_ctrls.wrQLenPdf::37                      0                       # What write queue length does an incoming req see
system.mem_ctrls.wrQLenPdf::38                      0                       # What write queue length does an incoming req see
system.mem_ctrls.wrQLenPdf::39                      0                       # What write queue length does an incoming req see
system.mem_ctrls.wrQLenPdf::40                      0                       # What write queue length does an incoming req see
system.mem_ctrls.wrQLenPdf::41                      0                       # What write queue length does an incoming req see
system.mem_ctrls.wrQLenPdf::42                      0                       # What write queue length does an incoming req see
system.mem_ctrls.wrQLenPdf::43                      0                       # What write queue length does an incoming req see
system.mem_ctrls.wrQLenPdf::44                      0                       # What write queue length does an incoming req see
system.mem_ctrls.wrQLenPdf::45                      0                       # What write queue length does an incoming req see
system.mem_ctrls.wrQLenPdf::46                      0                       # What write queue length does an incoming req see
system.mem_ctrls.wrQLenPdf::47                      0                       # What write queue length does an incoming req see
system.mem_ctrls.wrQLenPdf::48                      0                       # What write queue length does an incoming req see
system.mem_ctrls.wrQLenPdf::49                      0                       # What write queue length does an incoming req see
system.mem_ctrls.wrQLenPdf::50                      0                       # What write queue length does an incoming req see
system.mem_ctrls.wrQLenPdf::51                      0                       # What write queue length does an incoming req see
system.mem_ctrls.wrQLenPdf::52                      0                       # What write queue length does an incoming req see
system.mem_ctrls.wrQLenPdf::53                      0                       # What write queue length does an incoming req see
system.mem_ctrls.wrQLenPdf::54                      0                       # What write queue length does an incoming req see
system.mem_ctrls.wrQLenPdf::55                      0                       # What write queue length does an incoming req see
system.mem_ctrls.wrQLenPdf::56                      0                       # What write queue length does an incoming req see
system.mem_ctrls.wrQLenPdf::57                      0                       # What write queue length does an incoming req see
system.mem_ctrls.wrQLenPdf::58                      0                       # What write queue length does an incoming req see
system.mem_ctrls.wrQLenPdf::59                      0                       # What write queue length does an incoming req see
system.mem_ctrls.wrQLenPdf::60                      0                       # What write queue length does an incoming req see
system.mem_ctrls.wrQLenPdf::61                      0                       # What write queue length does an incoming req see
system.mem_ctrls.wrQLenPdf::62                      0                       # What write queue length does an incoming req see
system.mem_ctrls.wrQLenPdf::63                      0                       # What write queue length does an incoming req see
system.mem_ctrls.rdPerTurnAround::samples            2                       # Reads before turning the bus around for writes
system.mem_ctrls.rdPerTurnAround::mean           3899                       # Reads before turning the bus around for writes
system.mem_ctrls.rdPerTurnAround::gmean   1957.502746                       # Reads before turning the bus around for writes
system.mem_ctrls.rdPerTurnAround::stdev   4768.728132                       # Reads before turning the bus around for writes
system.mem_ctrls.rdPerTurnAround::512-767            1     50.00%     50.00% # Reads before turning the bus around for writes
system.mem_ctrls.rdPerTurnAround::7168-7423            1     50.00%    100.00% # Reads before turning the bus around for writes
system.mem_ctrls.rdPerTurnAround::total             2                       # Reads before turning the bus around for writes
system.mem_ctrls.wrPerTurnAround::samples            2                       # Writes before turning the bus around for reads
system.mem_ctrls.wrPerTurnAround::mean             17                       # Writes before turning the bus around for reads
system.mem_ctrls.wrPerTurnAround::gmean     16.970563                       # Writes before turning the bus around for reads
system.mem_ctrls.wrPerTurnAround::stdev      1.414214                       # Writes before turning the bus around for reads
system.mem_ctrls.wrPerTurnAround::16                1     50.00%     50.00% # Writes before turning the bus around for reads
system.mem_ctrls.wrPerTurnAround::18                1     50.00%    100.00% # Writes before turning the bus around for reads
system.mem_ctrls.wrPerTurnAround::total             2                       # Writes before turning the bus around for reads
system.mem_ctrls.bytesReadWrQ                      64                       # Total number of bytes read from write queue
system.mem_ctrls.bytesReadSys                  252288                       # Total read bytes from the system interface side
system.mem_ctrls.bytesWrittenSys                 2112                       # Total written bytes from the system interface side
system.mem_ctrls.avgRdBWSys                    172.37                       # Average system read bandwidth in MiByte/s
system.mem_ctrls.avgWrBWSys                      1.44                       # Average system write bandwidth in MiByte/s
system.mem_ctrls.totGap                    1463536500                       # Total gap between requests
system.mem_ctrls.avgGap                     184092.64                       # Average gap between requests
system.mem_ctrls.requestorReadBytes::.cpu.inst        84576                       # Per-requestor bytes read from memory
system.mem_ctrls.requestorReadBytes::.cpu.data       167680                       # Per-requestor bytes read from memory
system.mem_ctrls.requestorWriteBytes::.writebacks         1088                       # Per-requestor bytes write to memory
system.mem_ctrls.requestorReadRate::.cpu.inst 57785865.843405745924                       # Per-requestor bytes read from memory rate (Bytes/sec)
system.mem_ctrls.requestorReadRate::.cpu.data 114565999.628999665380                       # Per-requestor bytes read from memory rate (Bytes/sec)
system.mem_ctrls.requestorWriteRate::.writebacks 743367.173165265005                       # Per-requestor bytes write to memory rate (Bytes/sec)
system.mem_ctrls.requestorReadAccesses::.cpu.inst         2643                       # Per-requestor read serviced memory accesses
[...]
system.mem_ctrls.dram.bw_total::.cpu.data    114587863                       # Total bandwidth to/from this memory (bytes/s)
system.mem_ctrls.dram.bw_total::total       173816736                       # Total bandwidth to/from this memory (bytes/s)
system.mem_ctrls.dram.readBursts                 7883                       # Number of DRAM read bursts
system.mem_ctrls.dram.writeBursts                  34                       # Number of DRAM write bursts
system.mem_ctrls.dram.perBankRdBursts::0          593                       # Per bank write bursts
system.mem_ctrls.dram.perBankRdBursts::1          409                       # Per bank write bursts
system.mem_ctrls.dram.perBankRdBursts::2          421                       # Per bank write bursts
system.mem_ctrls.dram.perBankRdBursts::3          552                       # Per bank write bursts
system.mem_ctrls.dram.perBankRdBursts::4          509                       # Per bank write bursts
system.mem_ctrls.dram.perBankRdBursts::5          393                       # Per bank write bursts
system.mem_ctrls.dram.perBankRdBursts::6          481                       # Per bank write bursts
system.mem_ctrls.dram.perBankRdBursts::7          324                       # Per bank write bursts
system.mem_ctrls.dram.perBankRdBursts::8          428                       # Per bank write bursts
system.mem_ctrls.dram.perBankRdBursts::9          773                       # Per bank write bursts
system.mem_ctrls.dram.perBankRdBursts::10          693                       # Per bank write bursts
system.mem_ctrls.dram.perBankRdBursts::11          596                       # Per bank write bursts
system.mem_ctrls.dram.perBankRdBursts::12          472                       # Per bank write bursts
system.mem_ctrls.dram.perBankRdBursts::13          366                       # Per bank write bursts
system.mem_ctrls.dram.perBankRdBursts::14          263                       # Per bank write bursts
system.mem_ctrls.dram.perBankRdBursts::15          610                       # Per bank write bursts
system.mem_ctrls.dram.perBankWrBursts::0            1                       # Per bank write bursts
system.mem_ctrls.dram.perBankWrBursts::1            0                       # Per bank write bursts
system.mem_ctrls.dram.perBankWrBursts::2            0                       # Per bank write bursts
system.mem_ctrls.dram.perBankWrBursts::3            0                       # Per bank write bursts
system.mem_ctrls.dram.perBankWrBursts::4            0                       # Per bank write bursts
system.mem_ctrls.dram.perBankWrBursts::5            0                       # Per bank write bursts
system.mem_ctrls.dram.perBankWrBursts::6            0                       # Per bank write bursts
system.mem_ctrls.dram.perBankWrBursts::7            1                       # Per bank write bursts
system.mem_ctrls.dram.perBankWrBursts::8            0                       # Per bank write bursts
system.mem_ctrls.dram.perBankWrBursts::9            7                       # Per bank write bursts
system.mem_ctrls.dram.perBankWrBursts::10            5                       # Per bank write bursts
system.mem_ctrls.dram.perBankWrBursts::11            6                       # Per bank write bursts
system.mem_ctrls.dram.perBankWrBursts::12            2                       # Per bank write bursts
system.mem_ctrls.dram.perBankWrBursts::13            0                       # Per bank write bursts
system.mem_ctrls.dram.perBankWrBursts::14            0                       # Per bank write bursts
system.mem_ctrls.dram.perBankWrBursts::15           12                       # Per bank write bursts
system.mem_ctrls.dram.totQLat                42937500                       # Total ticks spent queuing
system.mem_ctrls.dram.totBusLat              39415000                       # Total ticks spent in databus transfers
system.mem_ctrls.dram.totMemAccLat          190743750                       # Total ticks spent from burst creation until serviced by the DRAM
system.mem_ctrls.dram.avgQLat                 5446.85                       # Average queueing delay per DRAM burst
system.mem_ctrls.dram.avgBusLat               5000.00                       # Average bus latency per DRAM burst
system.mem_ctrls.dram.avgMemAccLat           24196.85                       # Average memory access latency per DRAM burst
system.mem_ctrls.dram.readRowHits                6603                       # Number of row buffer hits during reads
system.mem_ctrls.dram.writeRowHits                 26                       # Number of row buffer hits during writes
system.mem_ctrls.dram.readRowHitRate            83.76                       # Row buffer hit rate for reads
system.mem_ctrls.dram.writeRowHitRate           76.47                       # Row buffer hit rate for writes
system.mem_ctrls.dram.bytesPerActivate::samples         1279                       # Bytes accessed per row activation
system.mem_ctrls.dram.bytesPerActivate::mean   394.107897                       # Bytes accessed per row activation
system.mem_ctrls.dram.bytesPerActivate::gmean   236.705828                       # Bytes accessed per row activation
system.mem_ctrls.dram.bytesPerActivate::stdev   369.495919                       # Bytes accessed per row activation
system.mem_ctrls.dram.bytesPerActivate::0-127          345     26.97%     26.97% # Bytes accessed per row activation
system.mem_ctrls.dram.bytesPerActivate::128-255          305     23.85%     50.82% # Bytes accessed per row activation
system.mem_ctrls.dram.bytesPerActivate::256-383          146     11.42%     62.24% # Bytes accessed per row activation
system.mem_ctrls.dram.bytesPerActivate::384-511           78      6.10%     68.33% # Bytes accessed per row activation
system.mem_ctrls.dram.bytesPerActivate::512-639           65      5.08%     73.42% # Bytes accessed per row activation
system.mem_ctrls.dram.bytesPerActivate::640-767           34      2.66%     76.08% # Bytes accessed per row activation
system.mem_ctrls.dram.bytesPerActivate::768-895           26      2.03%     78.11% # Bytes accessed per row activation
system.mem_ctrls.dram.bytesPerActivate::896-1023           30      2.35%     80.45% # Bytes accessed per row activation
system.mem_ctrls.dram.bytesPerActivate::1024-1151          250     19.55%    100.00% # Bytes accessed per row activation
system.mem_ctrls.dram.bytesPerActivate::total         1279                       # Bytes accessed per row activation
system.mem_ctrls.dram.bytesRead                504512                       # Total number of bytes read from DRAM
system.mem_ctrls.dram.bytesWritten               2176                       # Total number of bytes written to DRAM
system.mem_ctrls.dram.avgRdBW              344.703731                       # Average DRAM read bandwidth in MiBytes/s
system.mem_ctrls.dram.avgWrBW                1.486734                       # Average DRAM write bandwidth in MiBytes/s
system.mem_ctrls.dram.peakBW                 12800.00                       # Theoretical peak bandwidth in MiByte/s
system.mem_ctrls.dram.busUtil                    2.70                       # Data bus utilization in percentage
system.mem_ctrls.dram.busUtilRead                2.69                       # Data bus utilization in percentage for reads
system.mem_ctrls.dram.busUtilWrite               0.01                       # Data bus utilization in percentage for writes
system.mem_ctrls.dram.pageHitRate               83.73                       # Row buffer hit rate, read and write combined
system.mem_ctrls.dram.power_state.pwrStateResidencyTicks::UNDEFINED   1463610500                       # Cumulative time (in ticks) in various power states
system.mem_ctrls.dram.rank0.actEnergy         4869480                       # Energy for activate commands per rank (pJ)
system.mem_ctrls.dram.rank0.preEnergy         2573010                       # Energy for precharge commands per rank (pJ)
system.mem_ctrls.dram.rank0.readEnergy       26289480                       # Energy for read commands per rank (pJ)
system.mem_ctrls.dram.rank0.writeEnergy         10440                       # Energy for write commands per rank (pJ)
system.mem_ctrls.dram.rank0.refreshEnergy 114937680.000000                       # Energy for refresh commands per rank (pJ)
system.mem_ctrls.dram.rank0.actBackEnergy    375776490                       # Energy for active background per rank (pJ)
system.mem_ctrls.dram.rank0.preBackEnergy    245583360                       # Energy for precharge background per rank (pJ)
system.mem_ctrls.dram.rank0.actPowerDownEnergy            0                       # Energy for active power-down per rank (pJ)
system.mem_ctrls.dram.rank0.prePowerDownEnergy            0                       # Energy for precharge power-down per rank (pJ)
system.mem_ctrls.dram.rank0.selfRefreshEnergy            0                       # Energy for self refresh per rank (pJ)
system.mem_ctrls.dram.rank0.totalEnergy     770039940                       # Total energy per rank (pJ)
system.mem_ctrls.dram.rank0.averagePower   526.123542                       # Core power per rank (mW)
system.mem_ctrls.dram.rank0.totalIdleTime            0                       # Total Idle time Per DRAM Rank
system.mem_ctrls.dram.rank0.pwrStateTime::IDLE    634911750                       # Time in different power states
system.mem_ctrls.dram.rank0.pwrStateTime::REF     48620000                       # Time in different power states
system.mem_ctrls.dram.rank0.pwrStateTime::SREF            0                       # Time in different power states
system.mem_ctrls.dram.rank0.pwrStateTime::PRE_PDN            0                       # Time in different power states
system.mem_ctrls.dram.rank0.pwrStateTime::ACT    780078750                       # Time in different power states
system.mem_ctrls.dram.rank0.pwrStateTime::ACT_PDN            0                       # Time in different power states
system.mem_ctrls.dram.rank1.actEnergy         4326840                       # Energy for activate commands per rank (pJ)
system.mem_ctrls.dram.rank1.preEnergy         2280795                       # Energy for precharge commands per rank (pJ)
system.mem_ctrls.dram.rank1.readEnergy       29995140                       # Energy for read commands per rank (pJ)
system.mem_ctrls.dram.rank1.writeEnergy        167040                       # Energy for write commands per rank (pJ)
system.mem_ctrls.dram.rank1.refreshEnergy 114937680.000000                       # Energy for refresh commands per rank (pJ)
system.mem_ctrls.dram.rank1.actBackEnergy    406999380                       # Energy for active background per rank (pJ)
system.mem_ctrls.dram.rank1.preBackEnergy    219290400                       # Energy for precharge background per rank (pJ)
system.mem_ctrls.dram.rank1.actPowerDownEnergy            0                       # Energy for active power-down per rank (pJ)
system.mem_ctrls.dram.rank1.prePowerDownEnergy            0                       # Energy for precharge power-down per rank (pJ)
system.mem_ctrls.dram.rank1.selfRefreshEnergy            0                       # Energy for self refresh per rank (pJ)
system.mem_ctrls.dram.rank1.totalEnergy     777997275                       # Total energy per rank (pJ)
system.mem_ctrls.dram.rank1.averagePower   531.560326                       # Core power per rank (mW)
system.mem_ctrls.dram.rank1.totalIdleTime            0                       # Total Idle time Per DRAM Rank
system.mem_ctrls.dram.rank1.pwrStateTime::IDLE    566020000                       # Time in different power states
system.mem_ctrls.dram.rank1.pwrStateTime::REF     48620000                       # Time in different power states
system.mem_ctrls.dram.rank1.pwrStateTime::SREF            0                       # Time in different power states
system.mem_ctrls.dram.rank1.pwrStateTime::PRE_PDN            0                       # Time in different power states
system.mem_ctrls.dram.rank1.pwrStateTime::ACT    848970500                       # Time in different power states
system.mem_ctrls.dram.rank1.pwrStateTime::ACT_PDN            0                       # Time in different power states
system.mem_ctrls.power_state.pwrStateResidencyTicks::UNDEFINED   1463610500                       # Cumulative time (in ticks) in various power states
system.membus.trans_dist::ReadResp               6766                       # Transaction distribution
system.membus.trans_dist::WritebackDirty           66                       # Transaction distribution
system.membus.trans_dist::CleanEvict              282                       # Transaction distribution
system.membus.trans_dist::ReadExReq              1118                       # Transaction distribution
system.membus.trans_dist::ReadExResp             1118                       # Transaction distribution
system.membus.trans_dist::ReadSharedReq          6766                       # Transaction distribution
system.membus.pkt_count_system.l2.mem_side_port::system.mem_ctrls.port        16116                       # Packet count per connected requestor and responder (bytes)
system.membus.pkt_count_system.l2.mem_side_port::total        16116                       # Packet count per connected requestor and responder (bytes)
system.membus.pkt_count::total                  16116                       # Packet count per connected requestor and responder (bytes)
system.membus.pkt_size_system.l2.mem_side_port::system.mem_ctrls.port       254400                       # Cumulative packet size per connected requestor and responder (bytes)
system.membus.pkt_size_system.l2.mem_side_port::total       254400                       # Cumulative packet size per connected requestor and responder (bytes)
system.membus.pkt_size::total                  254400                       # Cumulative packet size per connected requestor and responder (bytes)
system.membus.snoops                                0                       # Total snoops (count)
system.membus.snoopTraffic                          0                       # Total snoop traffic (bytes)
system.membus.snoop_fanout::samples              7884                       # Request fanout histogram
system.membus.snoop_fanout::mean                    0                       # Request fanout histogram
system.membus.snoop_fanout::stdev                   0                       # Request fanout histogram
system.membus.snoop_fanout::underflows              0      0.00%      0.00% # Request fanout histogram
system.membus.snoop_fanout::0                    7884    100.00%    100.00% # Request fanout histogram
system.membus.snoop_fanout::1                       0      0.00%    100.00% # Request fanout histogram
system.membus.snoop_fanout::overflows               0      0.00%    100.00% # Request fanout histogram
system.membus.snoop_fanout::min_value               0                       # Request fanout histogram
system.membus.snoop_fanout::max_value               0                       # Request fanout histogram
system.membus.snoop_fanout::total                7884                       # Request fanout histogram
system.membus.power_state.pwrStateResidencyTicks::UNDEFINED   1463610500                       # Cumulative time (in ticks) in various power states
system.membus.reqLayer2.occupancy             8381500                       # Layer occupancy (ticks)
system.membus.reqLayer2.utilization               0.6                       # Layer utilization (%)
system.membus.respLayer1.occupancy           25993250                       # Layer occupancy (ticks)
system.membus.respLayer1.utilization              1.8                       # Layer utilization (%)
system.tol2bus.trans_dist::ReadResp              6905                       # Transaction distribution
system.tol2bus.trans_dist::WritebackDirty          623                       # Transaction distribution
system.tol2bus.trans_dist::WritebackClean          306                       # Transaction distribution
system.tol2bus.trans_dist::CleanEvict            2604                       # Transaction distribution
system.tol2bus.trans_dist::ReadExReq             1138                       # Transaction distribution
system.tol2bus.trans_dist::ReadExResp            1138                       # Transaction distribution
system.tol2bus.trans_dist::ReadCleanReq          2648                       # Transaction distribution
system.tol2bus.trans_dist::ReadSharedReq         4257                       # Transaction distribution
system.tol2bus.pkt_count_system.cpu.icache.mem_side_port::system.l2.cpu_side_port         5602                       # Packet count per connected requestor and responder (bytes)
system.tol2bus.pkt_count_system.cpu.dcache.mem_side_port::system.l2.cpu_side_port        12301                       # Packet count per connected requestor and responder (bytes)
system.tol2bus.pkt_count::total                 17903                       # Packet count per connected requestor and responder (bytes)
system.tol2bus.pkt_size_system.cpu.icache.mem_side_port::system.l2.cpu_side_port        94528                       # Cumulative packet size per connected requestor and responder (bytes)
system.tol2bus.pkt_size_system.cpu.dcache.mem_side_port::system.l2.cpu_side_port       190464                       # Cumulative packet size per connected requestor and responder (bytes)
system.tol2bus.pkt_size::total                 284992                       # Cumulative packet size per connected requestor and responder (bytes)
system.tol2bus.snoops                            1716                       # Total snoops (count)
system.tol2bus.snoopTraffic                      2112                       # Total snoop traffic (bytes)
system.tol2bus.snoop_fanout::samples             9759                       # Request fanout histogram
system.tol2bus.snoop_fanout::mean            0.160467                       # Request fanout histogram
system.tol2bus.snoop_fanout::stdev           0.367058                       # Request fanout histogram
system.tol2bus.snoop_fanout::underflows             0      0.00%      0.00% # Request fanout histogram
system.tol2bus.snoop_fanout::0                   8193     83.95%     83.95% # Request fanout histogram
system.tol2bus.snoop_fanout::1                   1566     16.05%    100.00% # Request fanout histogram
system.tol2bus.snoop_fanout::2                      0      0.00%    100.00% # Request fanout histogram
system.tol2bus.snoop_fanout::3                      0      0.00%    100.00% # Request fanout histogram
system.tol2bus.snoop_fanout::4                      0      0.00%    100.00% # Request fanout histogram
system.tol2bus.snoop_fanout::overflows              0      0.00%    100.00% # Request fanout histogram
system.tol2bus.snoop_fanout::min_value              0                       # Request fanout histogram
system.tol2bus.snoop_fanout::max_value              1                       # Request fanout histogram
system.tol2bus.snoop_fanout::total               9759                       # Request fanout histogram
system.tol2bus.power_state.pwrStateResidencyTicks::UNDEFINED   1463610500                       # Cumulative time (in ticks) in various power states
system.tol2bus.reqLayer0.occupancy            5361500                       # Layer occupancy (ticks)
system.tol2bus.reqLayer0.utilization              0.4                       # Layer utilization (%)
system.tol2bus.respLayer0.occupancy           2648000                       # Layer occupancy (ticks)
system.tol2bus.respLayer0.utilization             0.2                       # Layer utilization (%)
system.tol2bus.respLayer1.occupancy           5395000                       # Layer occupancy (ticks)
system.tol2bus.respLayer1.utilization             0.4                       # Layer utilization (%)
system.voltage_domain.voltage                       1                       # Voltage in Volts

---------- End Simulation Statistics   ----------
