
---------- Begin Simulation Statistics ----------
final_tick                               137205189500                       # Number of ticks from beginning of simulation (restored from checkpoints and never reset)
host_inst_rate                                 474521                       # Simulator instruction rate (inst/s)
host_mem_usage                                 712664                       # Number of bytes of host memory used
host_op_rate                                   725895                       # Simulator op (including micro ops) rate (op/s)
host_seconds                                   133.69                       # Real time elapsed on the host
host_tick_rate                             1026321570                       # Simulator tick rate (ticks/s)
sim_freq                                 1000000000000                       # Frequency of simulated ticks
sim_insts                                    63436878                       # Number of instructions simulated
sim_ops                                      97042210                       # Number of ops (including micro ops) simulated
sim_seconds                                  0.137205                       # Number of seconds simulated
sim_ticks                                137205189500                       # Number of ticks simulated
system.cpu.Branches                           7714393                       # Number of branches fetched
system.cpu.committedInsts                    63436878                       # Number of instructions committed
system.cpu.committedOps                      97042210                       # Number of ops (including micro ops) committed
system.cpu.idle_fraction                     0.000000                       # Percentage of idle cycles
system.cpu.not_idle_fraction                 1.000000                       # Percentage of non-idle cycles
system.cpu.numCycles                        274410379                       # number of cpu cycles simulated
system.cpu.numWorkItemsCompleted                    0                       # number of work items this cpu completed
system.cpu.numWorkItemsStarted                      0                       # number of work items this cpu started
system.cpu.num_busy_cycles               274410378.998000                       # Number of busy cycles
system.cpu.num_cc_register_reads             29902185                       # number of times the CC registers were read
system.cpu.num_cc_register_writes            27168373                       # number of times the CC registers were written
system.cpu.num_conditional_control_insts      4234783                       # number of instructions that are conditional controls
system.cpu.num_fp_alu_accesses                  85206                       # Number of float alu accesses
system.cpu.num_fp_insts                         85206                       # number of float instructions
system.cpu.num_fp_register_reads               119500                       # number of times the floating registers were read
system.cpu.num_fp_register_writes               63458                       # number of times the floating registers were written
system.cpu.num_func_calls                     1924148                       # number of times a function call or return occured
system.cpu.num_idle_cycles                   0.002000                       # Number of idle cycles
system.cpu.num_int_alu_accesses              95088667                       # Number of integer alu accesses
system.cpu.num_int_insts                     95088667                       # number of integer instructions
system.cpu.num_int_register_reads           214307208                       # number of times the integer registers were read
system.cpu.num_int_register_writes           77409627                       # number of times the integer registers were written
system.cpu.num_load_insts                    26073751                       # Number of load instructions
system.cpu.num_mem_refs                      36099173                       # number of memory refs
system.cpu.num_store_insts                   10025422                       # Number of store instructions
system.cpu.num_vec_alu_accesses                     0                       # Number of vector alu accesses
system.cpu.num_vec_insts                            0                       # number of vector instructions
system.cpu.num_vec_register_reads                   0                       # number of times the vector registers were read
system.cpu.num_vec_register_writes                  0                       # number of times the vector registers were written
system.cpu.op_class::No_OpClass                976243      1.01%      1.01% # Class of executed instruction
system.cpu.op_class::IntAlu                  59879192     61.70%     62.71% # Class of executed instruction
system.cpu.op_class::IntMult                       74      0.00%     62.71% # Class of executed instruction
system.cpu.op_class::IntDiv                     36240      0.04%     62.75% # Class of executed instruction
system.cpu.op_class::FloatAdd                    5590      0.01%     62.75% # Class of executed instruction
system.cpu.op_class::FloatCmp                       0      0.00%     62.75% # Class of executed instruction
system.cpu.op_class::FloatCvt                    1232      0.00%     62.75% # Class of executed instruction
system.cpu.op_class::FloatMult                      0      0.00%     62.75% # Class of executed instruction
system.cpu.op_class::FloatMultAcc                   0      0.00%     62.75% # Class of executed instruction
system.cpu.op_class::FloatDiv                       0      0.00%     62.75% # Class of executed instruction
system.cpu.op_class::FloatMisc                      0      0.00%     62.75% # Class of executed instruction
system.cpu.op_class::FloatSqrt                      0      0.00%     62.75% # Class of executed instruction
system.cpu.op_class::SimdAdd                     6716      0.01%     62.76% # Class of executed instruction
system.cpu.op_class::SimdAddAcc                     0      0.00%     62.76% # Class of executed instruction
system.cpu.op_class::SimdAlu                    12162      0.01%     62.77% # Class of executed instruction
system.cpu.op_class::SimdCmp                        6      0.00%     62.77% # Class of executed instruction
system.cpu.op_class::SimdCvt                    13804      0.01%     62.79% # Class of executed instruction
system.cpu.op_class::SimdMisc                   12230      0.01%     62.80% # Class of executed instruction
system.cpu.op_class::SimdMult                       0      0.00%     62.80% # Class of executed instruction
system.cpu.op_class::SimdMultAcc                    0      0.00%     62.80% # Class of executed instruction
system.cpu.op_class::SimdShift                    436      0.00%     62.80% # Class of executed instruction
system.cpu.op_class::SimdShiftAcc                   0      0.00%     62.80% # Class of executed instruction
system.cpu.op_class::SimdDiv                        0      0.00%     62.80% # Class of executed instruction
system.cpu.op_class::SimdSqrt                       0      0.00%     62.80% # Class of executed instruction
system.cpu.op_class::SimdFloatAdd                  10      0.00%     62.80% # Class of executed instruction
system.cpu.op_class::SimdFloatAlu                   0      0.00%     62.80% # Class of executed instruction
system.cpu.op_class::SimdFloatCmp                   0      0.00%     62.80% # Class of executed instruction
system.cpu.op_class::SimdFloatCvt                  30      0.00%     62.80% # Class of executed instruction
system.cpu.op_class::SimdFloatDiv                   0      0.00%     62.80% # Class of executed instruction
system.cpu.op_class::SimdFloatMisc                  0      0.00%     62.80% # Class of executed instruction
system.cpu.op_class::SimdFloatMult                 12      0.00%     62.80% # Class of executed instruction
system.cpu.op_class::SimdFloatMultAcc               0      0.00%     62.80% # Class of executed instruction
system.cpu.op_class::SimdFloatSqrt                  0      0.00%     62.80% # Class of executed instruction
system.cpu.op_class::SimdReduceAdd                  0      0.00%     62.80% # Class of executed instruction
system.cpu.op_class::SimdReduceAlu                  0      0.00%     62.80% # Class of executed instruction
system.cpu.op_class::SimdReduceCmp                  0      0.00%     62.80% # Class of executed instruction
system.cpu.op_class::SimdFloatReduceAdd             0      0.00%     62.80% # Class of executed instruction
system.cpu.op_class::SimdFloatReduceCmp             0      0.00%     62.80% # Class of executed instruction
system.cpu.op_class::SimdAes                        0      0.00%     62.80% # Class of executed instruction
system.cpu.op_class::SimdAesMix                     0      0.00%     62.80% # Class of executed instruction
system.cpu.op_class::SimdSha1Hash                   0      0.00%     62.80% # Class of executed instruction
system.cpu.op_class::SimdSha1Hash2                  0      0.00%     62.80% # Class of executed instruction
system.cpu.op_class::SimdSha256Hash                 0      0.00%     62.80% # Class of executed instruction
system.cpu.op_class::SimdSha256Hash2                0      0.00%     62.80% # Class of executed instruction
system.cpu.op_class::SimdShaSigma2                  0      0.00%     62.80% # Class of executed instruction
system.cpu.op_class::SimdShaSigma3                  0      0.00%     62.80% # Class of executed instruction
system.cpu.op_class::SimdPredAlu                    0      0.00%     62.80% # Class of executed instruction
system.cpu.op_class::MemRead                 26056914     26.85%     89.65% # Class of executed instruction
system.cpu.op_class::MemWrite                10011984     10.32%     99.97% # Class of executed instruction
system.cpu.op_class::FloatMemRead               16837      0.02%     99.99% # Class of executed instruction
system.cpu.op_class::FloatMemWrite              13438      0.01%    100.00% # Class of executed instruction
system.cpu.op_class::IprAccess                      0      0.00%    100.00% # Class of executed instruction
system.cpu.op_class::InstPrefetch                   0      0.00%    100.00% # Class of executed instruction
system.cpu.op_class::total                   97043150                       # Class of executed instruction
system.cpu.workload.numSyscalls                   100                       # Number of system calls
system.membus.snoop_filter.hit_multi_requests            0                       # Number of requests hitting in the snoop filter with multiple (>1) holders of the requested data.
system.membus.snoop_filter.hit_multi_snoops            0                       # Number of snoops hitting in the snoop filter with multiple (>1) holders of the requested data.
system.membus.snoop_filter.hit_single_requests       177518                       # Number of requests hitting in the snoop filter with a single holder of the requested data.
system.membus.snoop_filter.hit_single_snoops            0                       # Number of snoops hitting in the snoop filter with a single holder of the requested data.
system.membus.snoop_filter.tot_requests        364269                       # Total number of requests made to the snoop filter.
system.membus.snoop_filter.tot_snoops               0                       # Total number of snoops made to the snoop filter.
system.tol2bus.snoop_filter.hit_multi_requests            0                       # Number of requests hitting in the snoop filter with multiple (>1) holders of the requested data.
system.tol2bus.snoop_filter.hit_multi_snoops            0                       # Number of snoops hitting in the snoop filter with multiple (>1) holders of the requested data.
system.tol2bus.snoop_filter.hit_single_requests       188386                       # Number of requests hitting in the snoop filter with a single holder of the requested data.
system.tol2bus.snoop_filter.hit_single_snoops       177149                       # Number of snoops hitting in the snoop filter with a single holder of the requested data.
system.tol2bus.snoop_filter.tot_requests       383973                       # Total number of requests made to the snoop filter.
system.tol2bus.snoop_filter.tot_snoops         177149                       # Total number of snoops made to the snoop filter.
system.clk_domain.clock                          1000                       # Clock period in ticks
system.cpu.dcache.demand_hits::.cpu.data     35939861                       # number of demand (read+write) hits
system.cpu.dcache.demand_hits::total         35939861                       # number of demand (read+write) hits
system.cpu.dcache.overall_hits::.cpu.data     35939861                       # number of overall hits
system.cpu.dcache.overall_hits::total        35939861                       # number of overall hits
system.cpu.dcache.demand_misses::.cpu.data       191613                       # number of demand (read+write) misses
system.cpu.dcache.demand_misses::total         191613                       # number of demand (read+write) misses
system.cpu.dcache.overall_misses::.cpu.data       191613                       # number of overall misses
system.cpu.dcache.overall_misses::total        191613                       # number of overall misses
system.cpu.dcache.demand_miss_latency::.cpu.data  15405487000                       # number of demand (read+write) miss cycles
system.cpu.dcache.demand_miss_latency::total  15405487000                       # number of demand (read+write) miss cycles
system.cpu.dcache.overall_miss_latency::.cpu.data  15405487000                       # number of overall miss cycles
system.cpu.dcache.overall_miss_latency::total  15405487000                       # number of overall miss cycles
system.cpu.dcache.demand_accesses::.cpu.data     36131474                       # number of demand (read+write) accesses
system.cpu.dcache.demand_accesses::total     36131474                       # number of demand (read+write) accesses
system.cpu.dcache.overall_accesses::.cpu.data     36131474                       # number of overall (read+write) accesses
system.cpu.dcache.overall_accesses::total     36131474                       # number of overall (read+write) accesses
system.cpu.dcache.demand_miss_rate::.cpu.data     0.005303                       # miss rate for demand accesses
system.cpu.dcache.demand_miss_rate::total     0.005303                       # miss rate for demand accesses
system.cpu.dcache.overall_miss_rate::.cpu.data     0.005303                       # miss rate for overall accesses
system.cpu.dcache.overall_miss_rate::total     0.005303                       # miss rate for overall accesses
system.cpu.dcache.demand_avg_miss_latency::.cpu.data 80398.965623                       # average overall miss latency
system.cpu.dcache.demand_avg_miss_latency::total 80398.965623                       # average overall miss latency
system.cpu.dcache.overall_avg_miss_latency::.cpu.data 80398.965623                       # average overall miss latency
system.cpu.dcache.overall_avg_miss_latency::total 80398.965623                       # average overall miss latency
system.cpu.dcache.blocked_cycles::no_mshrs            0                       # number of cycles access was blocked
system.cpu.dcache.blocked_cycles::no_targets            0                       # number of cycles access was blocked
system.cpu.dcache.blocked::no_mshrs                 0                       # number of cycles access was blocked
system.cpu.dcache.blocked::no_targets               0                       # number of cycles access was blocked
system.cpu.dcache.avg_blocked_cycles::no_mshrs          nan                       # average number of cycles each access was blocked
system.cpu.dcache.avg_blocked_cycles::no_targets          nan                       # average number of cycles each access was blocked
system.cpu.dcache.writebacks::.writebacks       153789                       # number of writebacks
system.cpu.dcache.writebacks::total            153789                       # number of writebacks
system.cpu.dcache.demand_mshr_misses::.cpu.data       191613                       # number of demand (read+write) MSHR misses
system.cpu.dcache.demand_mshr_misses::total       191613                       # number of demand (read+write) MSHR misses
system.cpu.dcache.overall_mshr_misses::.cpu.data       191613                       # number of overall MSHR misses
system.cpu.dcache.overall_mshr_misses::total       191613                       # number of overall MSHR misses
system.cpu.dcache.demand_mshr_miss_latency::.cpu.data  15213874000                       # number of demand (read+write) MSHR miss cycles
system.cpu.dcache.demand_mshr_miss_latency::total  15213874000                       # number of demand (read+write) MSHR miss cycles
system.cpu.dcache.overall_mshr_miss_latency::.cpu.data  15213874000                       # number of overall MSHR miss cycles
system.cpu.dcache.overall_mshr_miss_latency::total  15213874000                       # number of overall MSHR miss cycles
system.cpu.dcache.demand_mshr_miss_rate::.cpu.data     0.005303                       # mshr miss rate for demand accesses
system.cpu.dcache.demand_mshr_miss_rate::total     0.005303                       # mshr miss rate for demand accesses
system.cpu.dcache.overall_mshr_miss_rate::.cpu.data     0.005303                       # mshr miss rate for overall accesses
system.cpu.dcache.overall_mshr_miss_rate::total     0.005303                       # mshr miss rate for overall accesses
system.cpu.dcache.demand_avg_mshr_miss_latency::.cpu.data 79398.965623                       # average overall mshr miss latency
system.cpu.dcache.demand_avg_mshr_miss_latency::total 79398.965623                       # average overall mshr miss latency
system.cpu.dcache.overall_avg_mshr_miss_latency::.cpu.data 79398.965623                       # average overall mshr miss latency
system.cpu.dcache.overall_avg_mshr_miss_latency::total 79398.965623                       # average overall mshr miss latency
system.cpu.dcache.replacements                 187517                       # number of replacements
system.cpu.dcache.ReadReq_hits::.cpu.data     25993655                       # number of ReadReq hits
system.cpu.dcache.ReadReq_hits::total        25993655                       # number of ReadReq hits
system.cpu.dcache.ReadReq_misses::.cpu.data        80216                       # number of ReadReq misses
system.cpu.dcache.ReadReq_misses::total         80216                       # number of ReadReq misses
system.cpu.dcache.ReadReq_miss_latency::.cpu.data   6743220000                       # number of ReadReq miss cycles
system.cpu.dcache.ReadReq_miss_latency::total   6743220000                       # number of ReadReq miss cycles
system.cpu.dcache.ReadReq_accesses::.cpu.data     26073871                       # number of ReadReq accesses(hits+misses)
system.cpu.dcache.ReadReq_accesses::total     26073871                       # number of ReadReq accesses(hits+misses)
system.cpu.dcache.ReadReq_miss_rate::.cpu.data     0.003076                       # miss rate for ReadReq accesses
system.cpu.dcache.ReadReq_miss_rate::total     0.003076                       # miss rate for ReadReq accesses
system.cpu.dcache.ReadReq_avg_miss_latency::.cpu.data 84063.279146                       # average ReadReq miss latency
system.cpu.dcache.ReadReq_avg_miss_latency::total 84063.279146                       # average ReadReq miss latency
system.cpu.dcache.ReadReq_mshr_misses::.cpu.data        80216                       # number of ReadReq MSHR misses
system.cpu.dcache.ReadReq_mshr_misses::total        80216                       # number of ReadReq MSHR misses
system.cpu.dcache.ReadReq_mshr_miss_latency::.cpu.data   6663004000                       # number of ReadReq MSHR miss cycles
system.cpu.dcache.ReadReq_mshr_miss_latency::total   6663004000                       # number of ReadReq MSHR miss cycles
system.cpu.dcache.ReadReq_mshr_miss_rate::.cpu.data     0.003076                       # mshr miss rate for ReadReq accesses
system.cpu.dcache.ReadReq_mshr_miss_rate::total     0.003076                       # mshr miss rate for ReadReq accesses
system.cpu.dcache.ReadReq_avg_mshr_miss_latency::.cpu.data 83063.279146                       # average ReadReq mshr miss latency
system.cpu.dcache.ReadReq_avg_mshr_miss_latency::total 83063.279146                       # average ReadReq mshr miss latency
system.cpu.dcache.WriteReq_hits::.cpu.data      9946206                       # number of WriteReq hits
system.cpu.dcache.WriteReq_hits::total        9946206                       # number of WriteReq hits
system.cpu.dcache.WriteReq_misses::.cpu.data       111397                       # number of WriteReq misses
system.cpu.dcache.WriteReq_misses::total       111397                       # number of WriteReq misses
system.cpu.dcache.WriteReq_miss_latency::.cpu.data   8662267000                       # number of WriteReq miss cycles
system.cpu.dcache.WriteReq_miss_latency::total   8662267000                       # number of WriteReq miss cycles
system.cpu.dcache.WriteReq_accesses::.cpu.data     10057603                       # number of WriteReq accesses(hits+misses)
system.cpu.dcache.WriteReq_accesses::total     10057603                       # number of WriteReq accesses(hits+misses)
system.cpu.dcache.WriteReq_miss_rate::.cpu.data     0.011076                       # miss rate for WriteReq accesses
system.cpu.dcache.WriteReq_miss_rate::total     0.011076                       # miss rate for WriteReq accesses
system.cpu.dcache.WriteReq_avg_miss_latency::.cpu.data 77760.325682                       # average WriteReq miss latency
system.cpu.dcache.WriteReq_avg_miss_latency::total 77760.325682                       # average WriteReq miss latency
system.cpu.dcache.WriteReq_mshr_misses::.cpu.data       111397                       # number of WriteReq MSHR misses
system.cpu.dcache.WriteReq_mshr_misses::total       111397                       # number of WriteReq MSHR misses
system.cpu.dcache.WriteReq_mshr_miss_latency::.cpu.data   8550870000                       # number of WriteReq MSHR miss cycles
system.cpu.dcache.WriteReq_mshr_miss_latency::total   8550870000                       # number of WriteReq MSHR miss cycles
system.cpu.dcache.WriteReq_mshr_miss_rate::.cpu.data     0.011076                       # mshr miss rate for WriteReq accesses
system.cpu.dcache.WriteReq_mshr_miss_rate::total     0.011076                       # mshr miss rate for WriteReq accesses
system.cpu.dcache.WriteReq_avg_mshr_miss_latency::.cpu.data 76760.325682                       # average WriteReq mshr miss latency
system.cpu.dcache.WriteReq_avg_mshr_miss_latency::total 76760.325682                       # average WriteReq mshr miss latency
system.cpu.dcache.power_state.pwrStateResidencyTicks::UNDEFINED 137205189500                       # Cumulative time (in ticks) in various power states
system.cpu.dcache.tags.tagsinuse          4081.800888                       # Cycle average of tags in use
system.cpu.dcache.tags.total_refs            36131474                       # Total number of references to valid blocks.
system.cpu.dcache.tags.sampled_refs            191613                       # Sample count of references to valid blocks.
system.cpu.dcache.tags.avg_refs            188.564836                       # Average number of references to valid blocks.
system.cpu.dcache.tags.warmup_cycle            174500                       # Cycle when the warmup percentage was hit.
system.cpu.dcache.tags.occ_blocks::.cpu.data  4081.800888                       # Average occupied blocks per requestor
system.cpu.dcache.tags.occ_percent::.cpu.data     0.996533                       # Average percentage of cache occupancy
system.cpu.dcache.tags.occ_percent::total     0.996533                       # Average percentage of cache occupancy
system.cpu.dcache.tags.occ_task_id_blocks::1024         4096                       # Occupied blocks per task id
system.cpu.dcache.tags.age_task_id_blocks_1024::0           35                       # Occupied blocks per task id
system.cpu.dcache.tags.age_task_id_blocks_1024::1          408                       # Occupied blocks per task id
system.cpu.dcache.tags.age_task_id_blocks_1024::2         3650                       # Occupied blocks per task id
system.cpu.dcache.tags.age_task_id_blocks_1024::3            3                       # Occupied blocks per task id
system.cpu.dcache.tags.occ_task_id_percent::1024            1                       # Percentage of cache occupancy per task id
system.cpu.dcache.tags.tag_accesses          72454561                       # Number of tag accesses
system.cpu.dcache.tags.data_accesses         72454561                       # Number of data accesses
system.cpu.dcache.tags.power_state.pwrStateResidencyTicks::UNDEFINED 137205189500                       # Cumulative time (in ticks) in various power states
system.cpu.dtb.rdAccesses                    26074093                       # TLB accesses on read requests
system.cpu.dtb.wrAccesses                    10058351                       # TLB accesses on write requests
system.cpu.dtb.rdMisses                          1987                       # TLB misses on read requests
system.cpu.dtb.wrMisses                          1560                       # TLB misses on write requests
system.cpu.dtb.walker.power_state.pwrStateResidencyTicks::UNDEFINED 137205189500                       # Cumulative time (in ticks) in various power states
system.cpu.dtb_walker_cache.blocked_cycles::no_mshrs            0                       # number of cycles access was blocked
system.cpu.dtb_walker_cache.blocked_cycles::no_targets            0                       # number of cycles access was blocked
system.cpu.dtb_walker_cache.blocked::no_mshrs            0                       # number of cycles access was blocked
system.cpu.dtb_walker_cache.blocked::no_targets            0                       # number of cycles access was blocked
system.cpu.dtb_walker_cache.avg_blocked_cycles::no_mshrs          nan                       # average number of cycles each access was blocked
system.cpu.dtb_walker_cache.avg_blocked_cycles::no_targets          nan                       # average number of cycles each access was blocked
system.cpu.dtb_walker_cache.replacements            0                       # number of replacements
system.cpu.dtb_walker_cache.power_state.pwrStateResidencyTicks::UNDEFINED 137205189500                       # Cumulative time (in ticks) in various power states
system.cpu.dtb_walker_cache.tags.tagsinuse            0                       # Cycle average of tags in use
system.cpu.dtb_walker_cache.tags.total_refs            0                       # Total number of references to valid blocks.
system.cpu.dtb_walker_cache.tags.sampled_refs            0                       # Sample count of references to valid blocks.
system.cpu.dtb_walker_cache.tags.avg_refs          nan                       # Average number of references to valid blocks.
system.cpu.dtb_walker_cache.tags.warmup_cycle            0                       # Cycle when the warmup percentage was hit.
system.cpu.dtb_walker_cache.tags.tag_accesses            0                       # Number of tag accesses
system.cpu.dtb_walker_cache.tags.data_accesses            0                       # Number of data accesses
system.cpu.dtb_walker_cache.tags.power_state.pwrStateResidencyTicks::UNDEFINED 137205189500                       # Cumulative time (in ticks) in various power states
system.cpu.icache.demand_hits::.cpu.inst     85584520                       # number of demand (read+write) hits
system.cpu.icache.demand_hits::total         85584520                       # number of demand (read+write) hits
system.cpu.icache.overall_hits::.cpu.inst     85584520                       # number of overall hits
system.cpu.icache.overall_hits::total        85584520                       # number of overall hits
system.cpu.icache.demand_misses::.cpu.inst         3974                       # number of demand (read+write) misses
system.cpu.icache.demand_misses::total           3974                       # number of demand (read+write) misses
system.cpu.icache.overall_misses::.cpu.inst         3974                       # number of overall misses
system.cpu.icache.overall_misses::total          3974                       # number of overall misses
system.cpu.icache.demand_miss_latency::.cpu.inst    310217000                       # number of demand (read+write) miss cycles
system.cpu.icache.demand_miss_latency::total    310217000                       # number of demand (read+write) miss cycles
system.cpu.icache.overall_miss_latency::.cpu.inst    310217000                       # number of overall miss cycles
system.cpu.icache.overall_miss_latency::total    310217000                       # number of overall miss cycles
system.cpu.icache.demand_accesses::.cpu.inst     85588494                       # number of demand (read+write) accesses
system.cpu.icache.demand_accesses::total     85588494                       # number of demand (read+write) accesses
system.cpu.icache.overall_accesses::.cpu.inst     85588494                       # number of overall (read+write) accesses
system.cpu.icache.overall_accesses::total     85588494                       # number of overall (read+write) accesses
system.cpu.icache.demand_miss_rate::.cpu.inst     0.000046                       # miss rate for demand accesses
system.cpu.icache.demand_miss_rate::total     0.000046                       # miss rate for demand accesses
system.cpu.icache.overall_miss_rate::.cpu.inst     0.000046                       # miss rate for overall accesses
system.cpu.icache.overall_miss_rate::total     0.000046                       # miss rate for overall accesses
system.cpu.icache.demand_avg_miss_latency::.cpu.inst 78061.650730                       # average overall miss latency
system.cpu.icache.demand_avg_miss_latency::total 78061.650730                       # average overall miss latency
system.cpu.icache.overall_avg_miss_latency::.cpu.inst 78061.650730                       # average overall miss latency
system.cpu.icache.overall_avg_miss_latency::total 78061.650730                       # average overall miss latency
system.cpu.icache.blocked_cycles::no_mshrs            0                       # number of cycles access was blocked
system.cpu.icache.blocked_cycles::no_targets            0                       # number of cycles access was blocked
system.cpu.icache.blocked::no_mshrs                 0                       # number of cycles access was blocked
system.cpu.icache.blocked::no_targets               0                       # number of cycles access was blocked
system.cpu.icache.avg_blocked_cycles::no_mshrs          nan                       # average number of cycles each access was blocked
system.cpu.icache.avg_blocked_cycles::no_targets          nan                       # average number of cycles each access was blocked
system.cpu.icache.writebacks::.writebacks          869                       # number of writebacks
system.cpu.icache.writebacks::total               869                       # number of writebacks
system.cpu.icache.demand_mshr_misses::.cpu.inst         3974                       # number of demand (read+write) MSHR misses
system.cpu.icache.demand_mshr_misses::total         3974                       # number of demand (read+write) MSHR misses
system.cpu.icache.overall_mshr_misses::.cpu.inst         3974                       # number of overall MSHR misses
system.cpu.icache.overall_mshr_misses::total         3974                       # number of overall MSHR misses
system.cpu.icache.demand_mshr_miss_latency::.cpu.inst    306243000                       # number of demand (read+write) MSHR miss cycles
system.cpu.icache.demand_mshr_miss_latency::total    306243000                       # number of demand (read+write) MSHR miss cycles
system.cpu.icache.overall_mshr_miss_latency::.cpu.inst    306243000                       # number of overall MSHR miss cycles
system.cpu.icache.overall_mshr_miss_latency::total    306243000                       # number of overall MSHR miss cycles
system.cpu.icache.demand_mshr_miss_rate::.cpu.inst     0.000046                       # mshr miss rate for demand accesses
system.cpu.icache.demand_mshr_miss_rate::total     0.000046                       # mshr miss rate for demand accesses
system.cpu.icache.overall_mshr_miss_rate::.cpu.inst     0.000046                       # mshr miss rate for overall accesses
system.cpu.icache.overall_mshr_miss_rate::total     0.000046                       # mshr miss rate for overall accesses
system.cpu.icache.demand_avg_mshr_miss_latency::.cpu.inst 77061.650730                       # average overall mshr miss latency
system.cpu.icache.demand_avg_mshr_miss_latency::total 77061.650730                       # average overall mshr miss latency
system.cpu.icache.overall_avg_mshr_miss_latency::.cpu.inst 77061.650730                       # average overall mshr miss latency
system.cpu.icache.overall_avg_mshr_miss_latency::total 77061.650730                       # average overall mshr miss latency
system.cpu.icache.replacements                    869                       # number of replacements
system.cpu.icache.ReadReq_hits::.cpu.inst     85584520                       # number of ReadReq hits
system.cpu.icache.ReadReq_hits::total        85584520                       # number of ReadReq hits
system.cpu.icache.ReadReq_misses::.cpu.inst         3974                       # number of ReadReq misses
system.cpu.icache.ReadReq_misses::total          3974                       # number of ReadReq misses
system.cpu.icache.ReadReq_miss_latency::.cpu.inst    310217000                       # number of ReadReq miss cycles
system.cpu.icache.ReadReq_miss_latency::total    310217000                       # number of ReadReq miss cycles
system.cpu.icache.ReadReq_accesses::.cpu.inst     85588494                       # number of ReadReq accesses(hits+misses)
system.cpu.icache.ReadReq_accesses::total     85588494                       # number of ReadReq accesses(hits+misses)
system.cpu.icache.ReadReq_miss_rate::.cpu.inst     0.000046                       # miss rate for ReadReq accesses
system.cpu.icache.ReadReq_miss_rate::total     0.000046                       # miss rate for ReadReq accesses
system.cpu.icache.ReadReq_avg_miss_latency::.cpu.inst 78061.650730                       # average ReadReq miss latency
system.cpu.icache.ReadReq_avg_miss_latency::total 78061.650730                       # average ReadReq miss latency
system.cpu.icache.ReadReq_mshr_misses::.cpu.inst         3974                       # number of ReadReq MSHR misses
system.cpu.icache.ReadReq_mshr_misses::total         3974                       # number of ReadReq MSHR misses
system.cpu.icache.ReadReq_mshr_miss_latency::.cpu.inst    306243000                       # number of ReadReq MSHR miss cycles
system.cpu.icache.ReadReq_mshr_miss_latency::total    306243000                       # number of ReadReq MSHR miss cycles
system.cpu.icache.ReadReq_mshr_miss_rate::.cpu.inst     0.000046                       # mshr miss rate for ReadReq accesses
system.cpu.icache.ReadReq_mshr_miss_rate::total     0.000046                       # mshr miss rate for ReadReq accesses
system.cpu.icache.ReadReq_avg_mshr_miss_latency::.cpu.inst 77061.650730                       # average ReadReq mshr miss latency
system.cpu.icache.ReadReq_avg_mshr_miss_latency::total 77061.650730                       # average ReadReq mshr miss latency
system.cpu.icache.power_state.pwrStateResidencyTicks::UNDEFINED 137205189500                       # Cumulative time (in ticks) in various power states
system.cpu.icache.tags.tagsinuse          2681.180573                       # Cycle average of tags in use
system.cpu.icache.tags.total_refs            85588494                       # Total number of references to valid blocks.
system.cpu.icache.tags.sampled_refs              3974                       # Sample count of references to valid blocks.
system.cpu.icache.tags.avg_refs          21537.114746                       # Average number of references to valid blocks.
system.cpu.icache.tags.warmup_cycle             87500                       # Cycle when the warmup percentage was hit.
system.cpu.icache.tags.occ_blocks::.cpu.inst  2681.180573                       # Average occupied blocks per requestor
system.cpu.icache.tags.occ_percent::.cpu.inst     0.654585                       # Average percentage of cache occupancy
system.cpu.icache.tags.occ_percent::total     0.654585                       # Average percentage of cache occupancy
system.cpu.icache.tags.occ_task_id_blocks::1024         3105                       # Occupied blocks per task id
system.cpu.icache.tags.age_task_id_blocks_1024::0           58                       # Occupied blocks per task id
system.cpu.icache.tags.age_task_id_blocks_1024::1          358                       # Occupied blocks per task id
system.cpu.icache.tags.age_task_id_blocks_1024::2           32                       # Occupied blocks per task id
system.cpu.icache.tags.age_task_id_blocks_1024::3          212                       # Occupied blocks per task id
system.cpu.icache.tags.age_task_id_blocks_1024::4         2445                       # Occupied blocks per task id
system.cpu.icache.tags.occ_task_id_percent::1024     0.758057                       # Percentage of cache occupancy per task id
system.cpu.icache.tags.tag_accesses         171180962                       # Number of tag accesses
system.cpu.icache.tags.data_accesses        171180962                       # Number of data accesses
system.cpu.icache.tags.power_state.pwrStateResidencyTicks::UNDEFINED 137205189500                       # Cumulative time (in ticks) in various power states
system.cpu.interrupts.clk_domain.clock           8000                       # Clock period in ticks
system.cpu.itb.rdAccesses                           0                       # TLB accesses on read requests
system.cpu.itb.wrAccesses                    85588623                       # TLB accesses on write requests
system.cpu.itb.rdMisses                             0                       # TLB misses on read requests
system.cpu.itb.wrMisses                           542                       # TLB misses on write requests
system.cpu.itb.walker.power_state.pwrStateResidencyTicks::UNDEFINED 137205189500                       # Cumulative time (in ticks) in various power states
system.cpu.itb_walker_cache.blocked_cycles::no_mshrs            0                       # number of cycles access was blocked
system.cpu.itb_walker_cache.blocked_cycles::no_targets            0                       # number of cycles access was blocked
system.cpu.itb_walker_cache.blocked::no_mshrs            0                       # number of cycles access was blocked
system.cpu.itb_walker_cache.blocked::no_targets            0                       # number of cycles access was blocked
system.cpu.itb_walker_cache.avg_blocked_cycles::no_mshrs          nan                       # average number of cycles each access was blocked
system.cpu.itb_walker_cache.avg_blocked_cycles::no_targets          nan                       # average number of cycles each access was blocked
system.cpu.itb_walker_cache.replacements            0                       # number of replacements
system.cpu.itb_walker_cache.power_state.pwrStateResidencyTicks::UNDEFINED 137205189500                       # Cumulative time (in ticks) in various power states
system.cpu.itb_walker_cache.tags.tagsinuse            0                       # Cycle average of tags in use
system.cpu.itb_walker_cache.tags.total_refs            0                       # Total number of references to valid blocks.
system.cpu.itb_walker_cache.tags.sampled_refs            0                       # Sample count of references to valid blocks.
system.cpu.itb_walker_cache.tags.avg_refs          nan                       # Average number of references to valid blocks.
system.cpu.itb_walker_cache.tags.warmup_cycle            0                       # Cycle when the warmup percentage was hit.
system.cpu.itb_walker_cache.tags.tag_accesses            0                       # Number of tag accesses
system.cpu.itb_walker_cache.tags.data_accesses            0                       # Number of data accesses
system.cpu.itb_walker_cache.tags.power_state.pwrStateResidencyTicks::UNDEFINED 137205189500                       # Cumulative time (in ticks) in various power states
system.cpu.power_state.pwrStateResidencyTicks::ON 137205189500                       # Cumulative time (in ticks) in various power states
system.cpu.thread_0.numInsts                        0                       # Number of Instructions committed
system.cpu.thread_0.numOps                          0                       # Number of Ops committed
system.cpu.thread_0.numMemRefs                      0                       # Number of Memory References
system.cpu_clk_domain.clock                       500                       # Clock period in ticks
system.cpu_voltage_domain.voltage                   1                       # Voltage in Volts
system.l2.demand_hits::.cpu.inst                   25                       # number of demand (read+write) hits
system.l2.demand_hits::.cpu.data                 8811                       # number of demand (read+write) hits
system.l2.demand_hits::total                     8836                       # number of demand (read+write) hits
system.l2.overall_hits::.cpu.inst                  25                       # number of overall hits
system.l2.overall_hits::.cpu.data                8811                       # number of overall hits
system.l2.overall_hits::total                    8836                       # number of overall hits
system.l2.demand_misses::.cpu.inst               3949                       # number of demand (read+write) misses
system.l2.demand_misses::.cpu.data             182802                       # number of demand (read+write) misses
system.l2.demand_misses::total                 186751                       # number of demand (read+write) misses
system.l2.overall_misses::.cpu.inst              3949                       # number of overall misses
system.l2.overall_misses::.cpu.data            182802                       # number of overall misses
system.l2.overall_misses::total                186751                       # number of overall misses
system.l2.demand_miss_latency::.cpu.inst    300019500                       # number of demand (read+write) miss cycles
system.l2.demand_miss_latency::.cpu.data  14833889000                       # number of demand (read+write) miss cycles
system.l2.demand_miss_latency::total      15133908500                       # number of demand (read+write) miss cycles
system.l2.overall_miss_latency::.cpu.inst    300019500                       # number of overall miss cycles
system.l2.overall_miss_latency::.cpu.data  14833889000                       # number of overall miss cycles
system.l2.overall_miss_latency::total     15133908500                       # number of overall miss cycles
system.l2.demand_accesses::.cpu.inst             3974                       # number of demand (read+write) accesses
system.l2.demand_accesses::.cpu.data           191613                       # number of demand (read+write) accesses
system.l2.demand_accesses::total               195587                       # number of demand (read+write) accesses
system.l2.overall_accesses::.cpu.inst            3974                       # number of overall (read+write) accesses
system.l2.overall_accesses::.cpu.data          191613                       # number of overall (read+write) accesses
system.l2.overall_accesses::total              195587                       # number of overall (read+write) accesses
system.l2.demand_miss_rate::.cpu.inst        0.993709                       # miss rate for demand accesses
system.l2.demand_miss_rate::.cpu.data        0.954017                       # miss rate for demand accesses
system.l2.demand_miss_rate::total            0.954823                       # miss rate for demand accesses
system.l2.overall_miss_rate::.cpu.inst       0.993709                       # miss rate for overall accesses
system.l2.overall_miss_rate::.cpu.data       0.954017                       # miss rate for overall accesses
system.l2.overall_miss_rate::total           0.954823                       # miss rate for overall accesses
system.l2.demand_avg_miss_latency::.cpu.inst 75973.537604                       # average overall miss latency
system.l2.demand_avg_miss_latency::.cpu.data 81147.301452                       # average overall miss latency
system.l2.demand_avg_miss_latency::total 81037.898057                       # average overall miss latency
system.l2.overall_avg_miss_latency::.cpu.inst 75973.537604                       # average overall miss latency
system.l2.overall_avg_miss_latency::.cpu.data 81147.301452                       # average overall miss latency
system.l2.overall_avg_miss_latency::total 81037.898057                       # average overall miss latency
system.l2.blocked_cycles::no_mshrs                  0                       # number of cycles access was blocked
system.l2.blocked_cycles::no_targets                0                       # number of cycles access was blocked
system.l2.blocked::no_mshrs                         0                       # number of cycles access was blocked
system.l2.blocked::no_targets                       0                       # number of cycles access was blocked
system.l2.avg_blocked_cycles::no_mshrs            nan                       # average number of cycles each access was blocked
system.l2.avg_blocked_cycles::no_targets          nan                       # average number of cycles each access was blocked
system.l2.writebacks::.writebacks              143666                       # number of writebacks
system.l2.writebacks::total                    143666                       # number of writebacks
system.l2.demand_mshr_misses::.cpu.inst          3949                       # number of demand (read+write) MSHR misses
system.l2.demand_mshr_misses::.cpu.data        182802                       # number of demand (read+write) MSHR misses
system.l2.demand_mshr_misses::total            186751                       # number of demand (read+write) MSHR misses
system.l2.overall_mshr_misses::.cpu.inst         3949                       # number of overall MSHR misses
system.l2.overall_mshr_misses::.cpu.data       182802                       # number of overall MSHR misses
system.l2.overall_mshr_misses::total           186751                       # number of overall MSHR misses
system.l2.demand_mshr_miss_latency::.cpu.inst    260529500                       # number of demand (read+write) MSHR miss cycles
system.l2.demand_mshr_miss_latency::.cpu.data  13005869000                       # number of demand (read+write) MSHR miss cycles
system.l2.demand_mshr_miss_latency::total  13266398500                       # number of demand (read+write) MSHR miss cycles
system.l2.overall_mshr_miss_latency::.cpu.inst    260529500                       # number of overall MSHR miss cycles
system.l2.overall_mshr_miss_latency::.cpu.data  13005869000                       # number of overall MSHR miss cycles
system.l2.overall_mshr_miss_latency::total  13266398500                       # number of overall MSHR miss cycles
system.l2.demand_mshr_miss_rate::.cpu.inst     0.993709                       # mshr miss rate for demand accesses
system.l2.demand_mshr_miss_rate::.cpu.data     0.954017                       # mshr miss rate for demand accesses
system.l2.demand_mshr_miss_rate::total       0.954823                       # mshr miss rate for demand accesses
system.l2.overall_mshr_miss_rate::.cpu.inst     0.993709                       # mshr miss rate for overall accesses
system.l2.overall_mshr_miss_rate::.cpu.data     0.954017                       # mshr miss rate for overall accesses
system.l2.overall_mshr_miss_rate::total      0.954823                       # mshr miss rate for overall accesses
system.l2.demand_avg_mshr_miss_latency::.cpu.inst 65973.537604                       # average overall mshr miss latency
system.l2.demand_avg_mshr_miss_latency::.cpu.data 71147.301452                       # average overall mshr miss latency
system.l2.demand_avg_mshr_miss_latency::total 71037.898057                       # average overall mshr miss latency
system.l2.overall_avg_mshr_miss_latency::.cpu.inst 65973.537604                       # average overall mshr miss latency
system.l2.overall_avg_mshr_miss_latency::.cpu.data 71147.301452                       # average overall mshr miss latency
system.l2.overall_avg_mshr_miss_latency::total 71037.898057                       # average overall mshr miss latency
system.l2.replacements                         326519                       # number of replacements
system.l2.WritebackDirty_hits::.writebacks       153789                       # number of WritebackDirty hits
system.l2.WritebackDirty_hits::total           153789                       # number of WritebackDirty hits
system.l2.WritebackDirty_accesses::.writebacks       153789                       # number of WritebackDirty accesses(hits+misses)
system.l2.WritebackDirty_accesses::total       153789                       # number of WritebackDirty accesses(hits+misses)
system.l2.WritebackClean_hits::.writebacks          869                       # number of WritebackClean hits
system.l2.WritebackClean_hits::total              869                       # number of WritebackClean hits
system.l2.WritebackClean_accesses::.writebacks          869                       # number of WritebackClean accesses(hits+misses)
system.l2.WritebackClean_accesses::total          869                       # number of WritebackClean accesses(hits+misses)
system.l2.CleanEvict_mshr_misses::.writebacks        28148                       # number of CleanEvict MSHR misses
system.l2.CleanEvict_mshr_misses::total         28148                       # number of CleanEvict MSHR misses
system.l2.CleanEvict_mshr_miss_rate::.writebacks          inf                       # mshr miss rate for CleanEvict accesses
system.l2.CleanEvict_mshr_miss_rate::total          inf                       # mshr miss rate for CleanEvict accesses
system.l2.ReadExReq_hits::.cpu.data               754                       # number of ReadExReq hits
system.l2.ReadExReq_hits::total                   754                       # number of ReadExReq hits
system.l2.ReadExReq_misses::.cpu.data          110643                       # number of ReadExReq misses
system.l2.ReadExReq_misses::total              110643                       # number of ReadExReq misses
system.l2.ReadExReq_miss_latency::.cpu.data   8375856500                       # number of ReadExReq miss cycles
system.l2.ReadExReq_miss_latency::total    8375856500                       # number of ReadExReq miss cycles
system.l2.ReadExReq_accesses::.cpu.data        111397                       # number of ReadExReq accesses(hits+misses)
system.l2.ReadExReq_accesses::total            111397                       # number of ReadExReq accesses(hits+misses)
system.l2.ReadExReq_miss_rate::.cpu.data     0.993231                       # miss rate for ReadExReq accesses
system.l2.ReadExReq_miss_rate::total         0.993231                       # miss rate for ReadExReq accesses
system.l2.ReadExReq_avg_miss_latency::.cpu.data 75701.639507                       # average ReadExReq miss latency
system.l2.ReadExReq_avg_miss_latency::total 75701.639507                       # average ReadExReq miss latency
system.l2.ReadExReq_mshr_misses::.cpu.data       110643                       # number of ReadExReq MSHR misses
system.l2.ReadExReq_mshr_misses::total         110643                       # number of ReadExReq MSHR misses
system.l2.ReadExReq_mshr_miss_latency::.cpu.data   7269426500                       # number of ReadExReq MSHR miss cycles
system.l2.ReadExReq_mshr_miss_latency::total   7269426500                       # number of ReadExReq MSHR miss cycles
system.l2.ReadExReq_mshr_miss_rate::.cpu.data     0.993231                       # mshr miss rate for ReadExReq accesses
system.l2.ReadExReq_mshr_miss_rate::total     0.993231                       # mshr miss rate for ReadExReq accesses
system.l2.ReadExReq_avg_mshr_miss_latency::.cpu.data 65701.639507                       # average ReadExReq mshr miss latency
system.l2.ReadExReq_avg_mshr_miss_latency::total 65701.639507                       # average ReadExReq mshr miss latency
system.l2.ReadCleanReq_hits::.cpu.inst             25                       # number of ReadCleanReq hits
system.l2.ReadCleanReq_hits::total                 25                       # number of ReadCleanReq hits
system.l2.ReadCleanReq_misses::.cpu.inst         3949                       # number of ReadCleanReq misses
system.l2.ReadCleanReq_misses::total             3949                       # number of ReadCleanReq misses
system.l2.ReadCleanReq_miss_latency::.cpu.inst    300019500                       # number of ReadCleanReq miss cycles
system.l2.ReadCleanReq_miss_latency::total    300019500                       # number of ReadCleanReq miss cycles
system.l2.ReadCleanReq_accesses::.cpu.inst         3974                       # number of ReadCleanReq accesses(hits+misses)
system.l2.ReadCleanReq_accesses::total           3974                       # number of ReadCleanReq accesses(hits+misses)
system.l2.ReadCleanReq_miss_rate::.cpu.inst     0.993709                       # miss rate for ReadCleanReq accesses
system.l2.ReadCleanReq_miss_rate::total      0.993709                       # miss rate for ReadCleanReq accesses
system.l2.ReadCleanReq_avg_miss_latency::.cpu.inst 75973.537604                       # average ReadCleanReq miss latency
system.l2.ReadCleanReq_avg_miss_latency::total 75973.537604                       # average ReadCleanReq miss latency
system.l2.ReadCleanReq_mshr_misses::.cpu.inst         3949                       # number of ReadCleanReq MSHR misses
system.l2.ReadCleanReq_mshr_misses::total         3949                       # number of ReadCleanReq MSHR misses
system.l2.ReadCleanReq_mshr_miss_latency::.cpu.inst    260529500                       # number of ReadCleanReq MSHR miss cycles
system.l2.ReadCleanReq_mshr_miss_latency::total    260529500                       # number of ReadCleanReq MSHR miss cycles
system.l2.ReadCleanReq_mshr_miss_rate::.cpu.inst     0.993709                       # mshr miss rate for ReadCleanReq accesses
system.l2.ReadCleanReq_mshr_miss_rate::total     0.993709                       # mshr miss rate for ReadCleanReq accesses
system.l2.ReadCleanReq_avg_mshr_miss_latency::.cpu.inst 65973.537604                       # average ReadCleanReq mshr miss latency
system.l2.ReadCleanReq_avg_mshr_miss_latency::total 65973.537604                       # average ReadCleanReq mshr miss latency
system.l2.ReadSharedReq_hits::.cpu.data          8057                       # number of ReadSharedReq hits
system.l2.ReadSharedReq_hits::total              8057                       # number of ReadSharedReq hits
system.l2.ReadSharedReq_misses::.cpu.data        72159                       # number of ReadSharedReq misses
system.l2.ReadSharedReq_misses::total           72159                       # number of ReadSharedReq misses
system.l2.ReadSharedReq_miss_latency::.cpu.data   6458032500                       # number of ReadSharedReq miss cycles
system.l2.ReadSharedReq_miss_latency::total   6458032500                       # number of ReadSharedReq miss cycles
system.l2.ReadSharedReq_accesses::.cpu.data        80216                       # number of ReadSharedReq accesses(hits+misses)
system.l2.ReadSharedReq_accesses::total         80216                       # number of ReadSharedReq accesses(hits+misses)
system.l2.ReadSharedReq_miss_rate::.cpu.data     0.899559                       # miss rate for ReadSharedReq accesses
system.l2.ReadSharedReq_miss_rate::total     0.899559                       # miss rate for ReadSharedReq accesses
system.l2.ReadSharedReq_avg_miss_latency::.cpu.data 89497.256060                       # average ReadSharedReq miss latency
system.l2.ReadSharedReq_avg_miss_latency::total 89497.256060                       # average ReadSharedReq miss latency
system.l2.ReadSharedReq_mshr_misses::.cpu.data        72159                       # number of ReadSharedReq MSHR misses
system.l2.ReadSharedReq_mshr_misses::total        72159                       # number of ReadSharedReq MSHR misses
system.l2.ReadSharedReq_mshr_miss_latency::.cpu.data   5736442500                       # number of ReadSharedReq MSHR miss cycles
system.l2.ReadSharedReq_mshr_miss_latency::total   5736442500                       # number of ReadSharedReq MSHR miss cycles
system.l2.ReadSharedReq_mshr_miss_rate::.cpu.data     0.899559                       # mshr miss rate for ReadSharedReq accesses
system.l2.ReadSharedReq_mshr_miss_rate::total     0.899559                       # mshr miss rate for ReadSharedReq accesses
system.l2.ReadSharedReq_avg_mshr_miss_latency::.cpu.data 79497.256060                       # average ReadSharedReq mshr miss latency
system.l2.ReadSharedReq_avg_mshr_miss_latency::total 79497.256060                       # average ReadSharedReq mshr miss latency
system.l2.power_state.pwrStateResidencyTicks::UNDEFINED 137205189500                       # Cumulative time (in ticks) in various power states
system.l2.tags.tagsinuse                  4088.200341                       # Cycle average of tags in use
system.l2.tags.total_refs                      355825                       # Total number of references to valid blocks.
system.l2.tags.sampled_refs                    330615                       # Sample count of references to valid blocks.
system.l2.tags.avg_refs                      1.076252                       # Average number of references to valid blocks.
system.l2.tags.warmup_cycle                     77000                       # Cycle when the warmup percentage was hit.
system.l2.tags.occ_blocks::.writebacks    1899.217079                       # Average occupied blocks per requestor
system.l2.tags.occ_blocks::.cpu.inst        33.492342                       # Average occupied blocks per requestor
system.l2.tags.occ_blocks::.cpu.data      2155.490920                       # Average occupied blocks per requestor
system.l2.tags.occ_percent::.writebacks      0.463676                       # Average percentage of cache occupancy
system.l2.tags.occ_percent::.cpu.inst        0.008177                       # Average percentage of cache occupancy
system.l2.tags.occ_percent::.cpu.data        0.526243                       # Average percentage of cache occupancy
system.l2.tags.occ_percent::total            0.998096                       # Average percentage of cache occupancy
system.l2.tags.occ_task_id_blocks::1024          4096                       # Occupied blocks per task id
system.l2.tags.age_task_id_blocks_1024::0          161                       # Occupied blocks per task id
system.l2.tags.age_task_id_blocks_1024::1         1273                       # Occupied blocks per task id
system.l2.tags.age_task_id_blocks_1024::2         2662                       # Occupied blocks per task id
system.l2.tags.occ_task_id_percent::1024            1                       # Percentage of cache occupancy per task id
system.l2.tags.tag_accesses                   1866507                       # Number of tag accesses
system.l2.tags.data_accesses                  1866507                       # Number of data accesses
system.l2.tags.power_state.pwrStateResidencyTicks::UNDEFINED 137205189500                       # Cumulative time (in ticks) in various power states
system.mem_ctrls.avgPriority_.writebacks::samples     75923.00                       # Average QoS priority value for accepted requests
system.mem_ctrls.avgPriority_.cpu.inst::samples      3949.00                       # Average QoS priority value for accepted requests
system.mem_ctrls.avgPriority_.cpu.data::samples    182703.00                       # Average QoS priority value for accepted requests
system.mem_ctrls.priorityMinLatency      0.000000018750                       # per QoS priority minimum request to response latency (s)
system.mem_ctrls.priorityMaxLatency      0.032650366750                       # per QoS priority maximum request to response latency (s)
system.mem_ctrls.numReadWriteTurnArounds         4277                       # Number of turnarounds from READ to WRITE
system.mem_ctrls.numWriteReadTurnArounds         4277                       # Number of turnarounds from WRITE to READ
system.mem_ctrls.numStayReadState              551205                       # Number of times bus staying in READ state
system.mem_ctrls.numStayWriteState              71703                       # Number of times bus staying in WRITE state
system.mem_ctrls.readReqs                      186751                       # Number of read requests accepted
system.mem_ctrls.writeReqs                     143666                       # Number of write requests accepted
system.mem_ctrls.readBursts                    186751                       # Number of controller read bursts, including those serviced by the write queue
system.mem_ctrls.writeBursts                   143666                       # Number of controller write bursts, including those merged in the write queue
system.mem_ctrls.servicedByWrQ                     99                       # Number of controller read bursts serviced by the write queue
system.mem_ctrls.mergedWrBursts                 67743                       # Number of controller write bursts merged with an existing one
system.mem_ctrls.neitherReadNorWriteReqs            0                       # Number of requests that are neither read nor write
system.mem_ctrls.avgRdQLen                       1.00                       # Average read queue length when enqueuing
system.mem_ctrls.avgWrQLen                      23.63                       # Average write queue length when enqueuing
system.mem_ctrls.numRdRetry                         0                       # Number of times read queue was full causing retry
system.mem_ctrls.numWrRetry                         0                       # Number of times write queue was full causing retry
system.mem_ctrls.readPktSize::0                     0                       # Read request sizes (log2)
system.mem_ctrls.readPktSize::1                     0                       # Read request sizes (log2)
system.mem_ctrls.readPktSize::2                     0                       # Read request sizes (log2)
system.mem_ctrls.readPktSize::3                     0                       # Read request sizes (log2)
system.mem_ctrls.readPktSize::4                     0                       # Read request sizes (log2)
system.mem_ctrls.readPktSize::5                186751                       # Read request sizes (log2)
system.mem_ctrls.writePktSize::0                    0                       # Write request sizes (log2)
system.mem_ctrls.writePktSize::1                    0                       # Write request sizes (log2)
system.mem_ctrls.writePktSize::2                    0                       # Write request sizes (log2)
system.mem_ctrls.writePktSize::3                    0                       # Write request sizes (log2)
system.mem_ctrls.writePktSize::4                    0                       # Write request sizes (log2)
system.mem_ctrls.writePktSize::5               143666                       # Write request sizes (log2)
system.mem_ctrls.rdQLenPdf::0                  186630                       # What read queue length does an incoming req see
system.mem_ctrls.rdQLenPdf::1                      22                       # What read queue length does an incoming req see
system.mem_ctrls.rdQLenPdf::2                       0                       # What read queue length does an incoming req see
system.mem_ctrls.rdQLenPdf::3                       0                       # What read queue length does an incoming req see
system.mem_ctrls.rdQLenPdf::4                       0                       # What read queue length does an incoming req see
system.mem_ctrls.rdQLenPdf::5                       0                       # What read queue length does an incoming req see
system.mem_ctrls.rdQLenPdf::6                       0                       # What read queue length does an incoming req see
system.mem_ctrls.rdQLenPdf::7                       0                       # What read queue length does an incoming req see
system.mem_ctrls.rdQLenPdf::8                       0                       # What read queue length does an incoming req see
system.mem_ctrls.rdQLenPdf::9                       0                       # What read queue length does an incoming req see
system.mem_ctrls.rdQLenPdf::10                      0                       # What read queue length does an incoming req see
system.mem_ctrls.rdQLenPdf::11                      0                       # What read queue length does an incoming req see
system.mem_ctrls.rdQLenPdf::12                      0                       # What read queue length does an incoming req see
system.mem_ctrls.rdQLenPdf::13                      0                       # What read queue length does an incoming req see
system.mem_ctrls.rdQLenPdf::14                      0                       # What read queue length does an incoming req see
system.mem_ctrls.rdQLenPdf::15                      0                       # What read queue length does an incoming req see
system.mem_ctrls.rdQLenPdf::16                      0                       # What read queue length does an incoming req see
system.mem_ctrls.rdQLenPdf::17                      0                       # What read queue length does an incoming req see
system.mem_ctrls.rdQLenPdf::18                      0                       # What read queue length does an incoming req see
system.mem_ctrls.rdQLenPdf::19                      0                       # What read queue length does an incoming req see
system.mem_ctrls.rdQLenPdf::20                      0                       # What read queue length does an incoming req see
system.mem_ctrls.rdQLenPdf::21                      0                       # What read queue length does an incoming req see
system.mem_ctrls.rdQLenPdf::22                      0                       # What read queue length does an incoming req see
system.mem_ctrls.rdQLenPdf::23                      0                       # What read queue length does an incoming req see
system.mem_ctrls.rdQLenPdf::24                      0                       # What read queue length does an incoming req see
system.mem_ctrls.rdQLenPdf::25                      0                       # What read queue length does an incoming req see
system.mem_ctrls.rdQLenPdf::26                      0                       # What read queue length does an incoming req see
system.mem_ctrls.rdQLenPdf::27                      0                       # What read queue length does an incoming req see
system.mem_ctrls.rdQLenPdf::28                      0                       # What read queue length does an incoming req see
system.mem_ctrls.rdQLenPdf::29                      0                       # What read queue length does an incoming req see
system.mem_ctrls.rdQLenPdf::30                      0                       # What read queue length does an incoming req see
system.mem_ctrls.rdQLenPdf::31                      0                       # What read queue length does an incoming req see
system.mem_ctrls.wrQLenPdf::0                       1                       # What write queue length does an incoming req see
system.mem_ctrls.wrQLenPdf::1                       1                       # What write queue length does an incoming req see
system.mem_ctrls.wrQLenPdf::2                       1                       # What write queue length does an incoming req see
system.mem_ctrls.wrQLenPdf::3                       1                       # What write queue length does an incoming req see
system.mem_ctrls.wrQLenPdf::4                       1                       # What write queue length does an incoming req see
system.mem_ctrls.wrQLenPdf::5                       1                       # What write queue length does an incoming req see
system.mem_ctrls.wrQLenPdf::6                       1                       # What write queue length does an incoming req see
system.mem_ctrls.wrQLenPdf::7                       1                       # What write queue length does an incoming req see
system.mem_ctrls.wrQLenPdf::8                       1                       # What write queue length does an incoming req see
system.mem_ctrls.wrQLenPdf::9                       1                       # What write queue length does an incoming req see
system.mem_ctrls.wrQLenPdf::10                      1                       # What write queue length does an incoming req see
system.mem_ctrls.wrQLenPdf::11                      1                       # What write queue length does an incoming req see
system.mem_ctrls.wrQLenPdf::12                      1                       # What write queue length does an incoming req see
system.mem_ctrls.wrQLenPdf::13                      1                       # What write queue length does an incoming req see
system.mem_ctrls.wrQLenPdf::14                      1                       # What write queue length does an incoming req see
system.mem_ctrls.wrQLenPdf::15                   3721                       # What write queue length does an incoming req see
system.mem_ctrls.wrQLenPdf::16                   3736                       # What write queue length does an incoming req see
system.mem_ctrls.wrQLenPdf::17                   4280                       # What write queue length does an incoming req see
system.mem_ctrls.wrQLenPdf::18                   4279                       # What write queue length does an incoming req see
system.mem_ctrls.wrQLenPdf::19                   4279                       # What write queue length does an incoming req see
system.mem_ctrls.wrQLenPdf::20                   4278                       # What write queue length does an incoming req see
system.mem_ctrls.wrQLenPdf::21                   4278                       # What write queue length does an incoming req see
system.mem_ctrls.wrQLenPdf::22                   4278                       # What write queue length does an incoming req see
system.mem_ctrls.wrQLenPdf::23                   4278                       # What write queue length does an incoming req see
system.mem_ctrls.wrQLenPdf::24                   4278                       # What write queue length does an incoming req see
system.mem_ctrls.wrQLenPdf::25                   4283                       # What write queue length does an incoming req see
system.mem_ctrls.wrQLenPdf::26                   4277                       # What write queue length does an incoming req see
system.mem_ctrls.wrQLenPdf::27                   4277                       # What write queue length does an incoming req see
system.mem_ctrls.wrQLenPdf::28                   4277                       # What write queue length does an incoming req see
system.mem_ctrls.wrQLenPdf::29                   4278                       # What write queue length does an incoming req see
system.mem_ctrls.wrQLenPdf::30                   4277                       # What write queue length does an incoming req see
system.mem_ctrls.wrQLenPdf::31                   4277                       # What write queue length does an incoming req see
system.mem_ctrls.wrQLenPdf::32                   4277                       # What write queue length does an incoming req see
system.mem_ctrls.wrQLenPdf::33                      0                       # What write queue length does an incoming req see
system.mem_ctrls.wrQLenPdf::34                      0                       # What write queue length does an incoming req see
system.mem_ctrls.wrQLenPdf::35                      0                       # What write queue length does an incoming req see
system.mem_ctrls.wrQLenPdf::36                      0                       # What write queue length does an incoming req see
system.mem_ctrls.wrQLenPdf::37                      0                       # What write queue length does an incoming req see
system.mem_ctrls.wrQLenPdf::38                      0                       # What write queue length does an incoming req see
system.mem_ctrls.wrQLenPdf::39                      0                       # What write queue length does an incoming req see
system.mem_ctrls.wrQLenPdf::40                      0                       # What write queue length does an incoming req see
system.mem_ctrls.wrQLenPdf::41                      0                       # What write queue length does an incoming req see
system.mem_ctrls.wrQLenPdf::42                      0                       # What write queue length does an incoming req see
system.mem_ctrls.wrQLenPdf::43                      0                       # What write queue length does an incoming req see
system.mem_ctrls.wrQLenPdf::44                      0                       # What write queue length does an incoming req see
system.mem_ctrls.wrQLenPdf::45                      0                       # What write queue length does an incoming req see
system.mem_ctrls.wrQLenPdf::46                      0                       # What write queue length does an incoming req see
system.mem_ctrls.wrQLenPdf::47                      0                       # What write queue length does an incoming req see
system.mem_ctrls.wrQLenPdf::48                      0                       # What write queue length does an incoming req see
system.mem_ctrls.wrQLenPdf::49                      0                       # What write queue length does an incoming req see
system.mem_ctrls.wrQLenPdf::50                      0                       # What write queue length does an incoming req see
system.mem_ctrls.wrQLenPdf::51                      0                       # What write queue length does an incoming req see
system.mem_ctrls.wrQLenPdf::52                      0                       # What write queue length does an incoming req see
system.mem_ctrls.wrQLenPdf::53                      0                       # What write queue length does an incoming req see
system.mem_ctrls.wrQLenPdf::54                      0                       # What write queue length does an incoming req see
system.mem_ctrls.wrQLenPdf::55                      0                       # What write queue length does an incoming req see
system.mem_ctrls.wrQLenPdf::56                      0                       # What write queue length does an incoming req see
system.mem_ctrls.wrQLenPdf::57                      0                       # What write queue length does an incoming req see
system.mem_ctrls.wrQLenPdf::58                      0                       # What write queue length does an incoming req see
system.mem_ctrls.wrQLenPdf::59                      0                       # What write queue length does an incoming req see
system.mem_ctrls.wrQLenPdf::60                      0                       # What write queue length does an incoming req see
system.mem_ctrls.wrQLenPdf::61                      0                       # What write queue length does an incoming req see
system.mem_ctrls.wrQLenPdf::62                      0                       # What write queue length does an incoming req see
system.mem_ctrls.wrQLenPdf::63                      0                       # What write queue length does an incoming req see
system.mem_ctrls.rdPerTurnAround::samples         4277                       # Reads before turning the bus around for writes
system.mem_ctrls.rdPerTurnAround::mean      43.636895                       # Reads before turning the bus around for writes
system.mem_ctrls.rdPerTurnAround::gmean     38.046098                       # Reads before turning the bus around for writes
system.mem_ctrls.rdPerTurnAround::stdev    112.322003                       # Reads before turning the bus around for writes
system.mem_ctrls.rdPerTurnAround::0-255          4258     99.56%     99.56% # Reads before turning the bus around for writes
system.mem_ctrls.rdPerTurnAround::256-511           12      0.28%     99.84% # Reads before turning the bus around for writes
system.mem_ctrls.rdPerTurnAround::512-767            1      0.02%     99.86% # Reads before turning the bus around for writes
system.mem_ctrls.rdPerTurnAround::768-1023            3      0.07%     99.93% # Reads before turning the bus around for writes
system.mem_ctrls.rdPerTurnAround::1024-1279            1      0.02%     99.95% # Reads before turning the bus around for writes
system.mem_ctrls.rdPerTurnAround::4096-4351            1      0.02%     99.98% # Reads before turning the bus around for writes
system.mem_ctrls.rdPerTurnAround::5376-5631            1      0.02%    100.00% # Reads before turning the bus around for writes
system.mem_ctrls.rdPerTurnAround::total          4277                       # Reads before turning the bus around for writes
system.mem_ctrls.wrPerTurnAround::samples         4277                       # Writes before turning the bus around for reads
system.mem_ctrls.wrPerTurnAround::mean      17.745616                       # Writes before turning the bus around for reads
system.mem_ctrls.wrPerTurnAround::gmean     17.732157                       # Writes before turning the bus around for reads
system.mem_ctrls.wrPerTurnAround::stdev      0.671697                       # Writes before turning the bus around for reads
system.mem_ctrls.wrPerTurnAround::16              545     12.74%     12.74% # Writes before turning the bus around for reads
system.mem_ctrls.wrPerTurnAround::17               12      0.28%     13.02% # Writes before turning the bus around for reads
system.mem_ctrls.wrPerTurnAround::18             3706     86.65%     99.67% # Writes before turning the bus around for reads
system.mem_ctrls.wrPerTurnAround::19               14      0.33%    100.00% # Writes before turning the bus around for reads
system.mem_ctrls.wrPerTurnAround::total          4277                       # Writes before turning the bus around for reads
system.mem_ctrls.bytesReadWrQ                    6336                       # Total number of bytes read from write queue
system.mem_ctrls.bytesReadSys                 5976032                       # Total read bytes from the system interface side
system.mem_ctrls.bytesWrittenSys              4597312                       # Total written bytes from the system interface side
system.mem_ctrls.avgRdBWSys                     43.56                       # Average system read bandwidth in MiByte/s
system.mem_ctrls.avgWrBWSys                     33.51                       # Average system write bandwidth in MiByte/s
system.mem_ctrls.totGap                  137205115500                       # Total gap between requests
system.mem_ctrls.avgGap                     415248.35                       # Average gap between requests
[...]
system.mem_ctrls.dram.bw_total::.cpu.data     42634422                       # Total bandwidth to/from this memory (bytes/s)
system.mem_ctrls.dram.bw_total::total        77062275                       # Total bandwidth to/from this memory (bytes/s)
system.mem_ctrls.dram.readBursts               186652                       # Number of DRAM read bursts
system.mem_ctrls.dram.writeBursts               75898                       # Number of DRAM write bursts
system.mem_ctrls.dram.perBankRdBursts::0        12199                       # Per bank write bursts
system.mem_ctrls.dram.perBankRdBursts::1        11239                       # Per bank write bursts
system.mem_ctrls.dram.perBankRdBursts::2        11244                       # Per bank write bursts
system.mem_ctrls.dram.perBankRdBursts::3        12704                       # Per bank write bursts
system.mem_ctrls.dram.perBankRdBursts::4        11518                       # Per bank write bursts
system.mem_ctrls.dram.perBankRdBursts::5        11310                       # Per bank write bursts
system.mem_ctrls.dram.perBankRdBursts::6        11390                       # Per bank write bursts
system.mem_ctrls.dram.perBankRdBursts::7        11824                       # Per bank write bursts
system.mem_ctrls.dram.perBankRdBursts::8        11783                       # Per bank write bursts
system.mem_ctrls.dram.perBankRdBursts::9        11618                       # Per bank write bursts
system.mem_ctrls.dram.perBankRdBursts::10        12201                       # Per bank write bursts
system.mem_ctrls.dram.perBankRdBursts::11        11975                       # Per bank write bursts
system.mem_ctrls.dram.perBankRdBursts::12        11297                       # Per bank write bursts
system.mem_ctrls.dram.perBankRdBursts::13        11017                       # Per bank write bursts
system.mem_ctrls.dram.perBankRdBursts::14        11370                       # Per bank write bursts
system.mem_ctrls.dram.perBankRdBursts::15        11963                       # Per bank write bursts
system.mem_ctrls.dram.perBankWrBursts::0         4945                       # Per bank write bursts
system.mem_ctrls.dram.perBankWrBursts::1         4393                       # Per bank write bursts
system.mem_ctrls.dram.perBankWrBursts::2         4642                       # Per bank write bursts
system.mem_ctrls.dram.perBankWrBursts::3         4956                       # Per bank write bursts
system.mem_ctrls.dram.perBankWrBursts::4         4639                       # Per bank write bursts
system.mem_ctrls.dram.perBankWrBursts::5         4639                       # Per bank write bursts
system.mem_ctrls.dram.perBankWrBursts::6         5003                       # Per bank write bursts
system.mem_ctrls.dram.perBankWrBursts::7         4522                       # Per bank write bursts
system.mem_ctrls.dram.perBankWrBursts::8         4931                       # Per bank write bursts
system.mem_ctrls.dram.perBankWrBursts::9         4544                       # Per bank write bursts
system.mem_ctrls.dram.perBankWrBursts::10         4874                       # Per bank write bursts
system.mem_ctrls.dram.perBankWrBursts::11         4951                       # Per bank write bursts
system.mem_ctrls.dram.perBankWrBursts::12         4818                       # Per bank write bursts
system.mem_ctrls.dram.perBankWrBursts::13         4559                       # Per bank write bursts
system.mem_ctrls.dram.perBankWrBursts::14         4772                       # Per bank write bursts
system.mem_ctrls.dram.perBankWrBursts::15         4710                       # Per bank write bursts
system.mem_ctrls.dram.totQLat              2131653500                       # Total ticks spent queuing
system.mem_ctrls.dram.totBusLat             933260000                       # Total ticks spent in databus transfers
system.mem_ctrls.dram.totMemAccLat         5631378500                       # Total ticks spent from burst creation until serviced by the DRAM
system.mem_ctrls.dram.avgQLat                11420.47                       # Average queueing delay per DRAM burst
system.mem_ctrls.dram.avgBusLat               5000.00                       # Average bus latency per DRAM burst
system.mem_ctrls.dram.avgMemAccLat           30170.47                       # Average memory access latency per DRAM burst
system.mem_ctrls.dram.readRowHits              120795                       # Number of row buffer hits during reads
system.mem_ctrls.dram.writeRowHits              65846                       # Number of row buffer hits during writes
system.mem_ctrls.dram.readRowHitRate            64.72                       # Row buffer hit rate for reads
system.mem_ctrls.dram.writeRowHitRate           86.76                       # Row buffer hit rate for writes
system.mem_ctrls.dram.bytesPerActivate::samples        75899                       # Bytes accessed per row activation
system.mem_ctrls.dram.bytesPerActivate::mean   221.351849                       # Bytes accessed per row activation
system.mem_ctrls.dram.bytesPerActivate::gmean   126.853398                       # Bytes accessed per row activation
system.mem_ctrls.dram.bytesPerActivate::stdev   278.196085                       # Bytes accessed per row activation
system.mem_ctrls.dram.bytesPerActivate::0-127        46217     60.89%     60.89% # Bytes accessed per row activation
system.mem_ctrls.dram.bytesPerActivate::128-255         6792      8.95%     69.84% # Bytes accessed per row activation
system.mem_ctrls.dram.bytesPerActivate::256-383        10514     13.85%     83.69% # Bytes accessed per row activation
system.mem_ctrls.dram.bytesPerActivate::384-511         1471      1.94%     85.63% # Bytes accessed per row activation
system.mem_ctrls.dram.bytesPerActivate::512-639         1657      2.18%     87.82% # Bytes accessed per row activation
system.mem_ctrls.dram.bytesPerActivate::640-767         2271      2.99%     90.81% # Bytes accessed per row activation
system.mem_ctrls.dram.bytesPerActivate::768-895         1155      1.52%     92.33% # Bytes accessed per row activation
system.mem_ctrls.dram.bytesPerActivate::896-1023         1172      1.54%     93.87% # Bytes accessed per row activation
system.mem_ctrls.dram.bytesPerActivate::1024-1151         4650      6.13%    100.00% # Bytes accessed per row activation
system.mem_ctrls.dram.bytesPerActivate::total        75899                       # Bytes accessed per row activation
system.mem_ctrls.dram.bytesRead              11945728                       # Total number of bytes read from DRAM
system.mem_ctrls.dram.bytesWritten            4857472                       # Total number of bytes written to DRAM
system.mem_ctrls.dram.avgRdBW               87.064695                       # Average DRAM read bandwidth in MiBytes/s
system.mem_ctrls.dram.avgWrBW               35.402976                       # Average DRAM write bandwidth in MiBytes/s
system.mem_ctrls.dram.peakBW                 12800.00                       # Theoretical peak bandwidth in MiByte/s
system.mem_ctrls.dram.busUtil                    0.96                       # Data bus utilization in percentage
system.mem_ctrls.dram.busUtilRead                0.68                       # Data bus utilization in percentage for reads
system.mem_ctrls.dram.busUtilWrite               0.28                       # Data bus utilization in percentage for writes
system.mem_ctrls.dram.pageHitRate               71.09                       # Row buffer hit rate, read and write combined
system.mem_ctrls.dram.power_state.pwrStateResidencyTicks::UNDEFINED 137205189500                       # Cumulative time (in ticks) in various power states
system.mem_ctrls.dram.rank0.actEnergy       271748400                       # Energy for activate commands per rank (pJ)
system.mem_ctrls.dram.rank0.preEnergy       144418725                       # Energy for precharge commands per rank (pJ)
system.mem_ctrls.dram.rank0.readEnergy      667075920                       # Energy for read commands per rank (pJ)
system.mem_ctrls.dram.rank0.writeEnergy     196997580                       # Energy for write commands per rank (pJ)
system.mem_ctrls.dram.rank0.refreshEnergy 10830571440.000002                       # Energy for refresh commands per rank (pJ)
system.mem_ctrls.dram.rank0.actBackEnergy  23897310420                       # Energy for active background per rank (pJ)
system.mem_ctrls.dram.rank0.preBackEnergy  32562742080                       # Energy for precharge background per rank (pJ)
system.mem_ctrls.dram.rank0.actPowerDownEnergy            0                       # Energy for active power-down per rank (pJ)
system.mem_ctrls.dram.rank0.prePowerDownEnergy            0                       # Energy for precharge power-down per rank (pJ)
system.mem_ctrls.dram.rank0.selfRefreshEnergy            0                       # Energy for self refresh per rank (pJ)
system.mem_ctrls.dram.rank0.totalEnergy   68570864565                       # Total energy per rank (pJ)
system.mem_ctrls.dram.rank0.averagePower   499.768739                       # Core power per rank (mW)
system.mem_ctrls.dram.rank0.totalIdleTime            0                       # Total Idle time Per DRAM Rank
system.mem_ctrls.dram.rank0.pwrStateTime::IDLE  84274715500                       # Time in different power states
system.mem_ctrls.dram.rank0.pwrStateTime::REF   4581460000                       # Time in different power states
system.mem_ctrls.dram.rank0.pwrStateTime::SREF            0                       # Time in different power states
system.mem_ctrls.dram.rank0.pwrStateTime::PRE_PDN            0                       # Time in different power states
system.mem_ctrls.dram.rank0.pwrStateTime::ACT  48349014000                       # Time in different power states
system.mem_ctrls.dram.rank0.pwrStateTime::ACT_PDN            0                       # Time in different power states
system.mem_ctrls.dram.rank1.actEnergy       270241860                       # Energy for activate commands per rank (pJ)
system.mem_ctrls.dram.rank1.preEnergy       143617980                       # Energy for precharge commands per rank (pJ)
system.mem_ctrls.dram.rank1.readEnergy      665619360                       # Energy for read commands per rank (pJ)
system.mem_ctrls.dram.rank1.writeEnergy     199189980                       # Energy for write commands per rank (pJ)
system.mem_ctrls.dram.rank1.refreshEnergy 10830571440.000002                       # Energy for refresh commands per rank (pJ)
system.mem_ctrls.dram.rank1.actBackEnergy  24002237160                       # Energy for active background per rank (pJ)
system.mem_ctrls.dram.rank1.preBackEnergy  32474382720                       # Energy for precharge background per rank (pJ)
system.mem_ctrls.dram.rank1.actPowerDownEnergy            0                       # Energy for active power-down per rank (pJ)
system.mem_ctrls.dram.rank1.prePowerDownEnergy            0                       # Energy for precharge power-down per rank (pJ)
system.mem_ctrls.dram.rank1.selfRefreshEnergy            0                       # Energy for self refresh per rank (pJ)
system.mem_ctrls.dram.rank1.totalEnergy   68585860500                       # Total energy per rank (pJ)
system.mem_ctrls.dram.rank1.averagePower   499.878035                       # Core power per rank (mW)
system.mem_ctrls.dram.rank1.totalIdleTime            0                       # Total Idle time Per DRAM Rank
system.mem_ctrls.dram.rank1.pwrStateTime::IDLE  83999857250                       # Time in different power states
system.mem_ctrls.dram.rank1.pwrStateTime::REF   4581460000                       # Time in different power states
system.mem_ctrls.dram.rank1.pwrStateTime::SREF            0                       # Time in different power states
system.mem_ctrls.dram.rank1.pwrStateTime::PRE_PDN            0                       # Time in different power states
system.mem_ctrls.dram.rank1.pwrStateTime::ACT  48623872250                       # Time in different power states
system.mem_ctrls.dram.rank1.pwrStateTime::ACT_PDN            0                       # Time in different power states
system.mem_ctrls.power_state.pwrStateResidencyTicks::UNDEFINED 137205189500                       # Cumulative time (in ticks) in various power states
system.membus.trans_dist::ReadResp              76108                       # Transaction distribution
system.membus.trans_dist::WritebackDirty       143666                       # Transaction distribution
system.membus.trans_dist::CleanEvict            33852                       # Transaction distribution
system.membus.trans_dist::ReadExReq            110643                       # Transaction distribution
system.membus.trans_dist::ReadExResp           110643                       # Transaction distribution
system.membus.trans_dist::ReadSharedReq         76108                       # Transaction distribution
system.membus.pkt_count_system.l2.mem_side_port::system.mem_ctrls.port       551020                       # Packet count per connected requestor and responder (bytes)
system.membus.pkt_count_system.l2.mem_side_port::total       551020                       # Packet count per connected requestor and responder (bytes)
system.membus.pkt_count::total                 551020                       # Packet count per connected requestor and responder (bytes)
system.membus.pkt_size_system.l2.mem_side_port::system.mem_ctrls.port     10573344                       # Cumulative packet size per connected requestor and responder (bytes)
system.membus.pkt_size_system.l2.mem_side_port::total     10573344                       # Cumulative packet size per connected requestor and responder (bytes)
system.membus.pkt_size::total                10573344                       # Cumulative packet size per connected requestor and responder (bytes)
system.membus.snoops                                0                       # Total snoops (count)
system.membus.snoopTraffic                          0                       # Total snoop traffic (bytes)
system.membus.snoop_fanout::samples            186751                       # Request fanout histogram
system.membus.snoop_fanout::mean                    0                       # Request fanout histogram
system.membus.snoop_fanout::stdev                   0                       # Request fanout histogram
system.membus.snoop_fanout::underflows              0      0.00%      0.00% # Request fanout histogram
system.membus.snoop_fanout::0                  186751    100.00%    100.00% # Request fanout histogram
system.membus.snoop_fanout::1                       0      0.00%    100.00% # Request fanout histogram
system.membus.snoop_fanout::overflows               0      0.00%    100.00% # Request fanout histogram
system.membus.snoop_fanout::min_value               0                       # Request fanout histogram
system.membus.snoop_fanout::max_value               0                       # Request fanout histogram
system.membus.snoop_fanout::total              186751                       # Request fanout histogram
system.membus.power_state.pwrStateResidencyTicks::UNDEFINED 137205189500                       # Cumulative time (in ticks) in various power states
system.membus.reqLayer2.occupancy           651641500                       # Layer occupancy (ticks)
system.membus.reqLayer2.utilization               0.5                       # Layer utilization (%)
system.membus.respLayer1.occupancy          632675500                       # Layer occupancy (ticks)
system.membus.respLayer1.utilization              0.5                       # Layer utilization (%)
system.tol2bus.trans_dist::ReadResp             84190                       # Transaction distribution
system.tol2bus.trans_dist::WritebackDirty       297455                       # Transaction distribution
system.tol2bus.trans_dist::WritebackClean          869                       # Transaction distribution
system.tol2bus.trans_dist::CleanEvict          216581                       # Transaction distribution
system.tol2bus.trans_dist::ReadExReq           111397                       # Transaction distribution
system.tol2bus.trans_dist::ReadExResp          111397                       # Transaction distribution
system.tol2bus.trans_dist::ReadCleanReq          3974                       # Transaction distribution
system.tol2bus.trans_dist::ReadSharedReq        80216                       # Transaction distribution
system.tol2bus.pkt_count_system.cpu.icache.mem_side_port::system.l2.cpu_side_port         8817                       # Packet count per connected requestor and responder (bytes)
system.tol2bus.pkt_count_system.cpu.dcache.mem_side_port::system.l2.cpu_side_port       570743                       # Packet count per connected requestor and responder (bytes)
system.tol2bus.pkt_count::total                579560                       # Packet count per connected requestor and responder (bytes)
system.tol2bus.pkt_size_system.cpu.icache.mem_side_port::system.l2.cpu_side_port       154976                       # Cumulative packet size per connected requestor and responder (bytes)
system.tol2bus.pkt_size_system.cpu.dcache.mem_side_port::system.l2.cpu_side_port     11052864                       # Cumulative packet size per connected requestor and responder (bytes)
system.tol2bus.pkt_size::total               11207840                       # Cumulative packet size per connected requestor and responder (bytes)
system.tol2bus.snoops                          326519                       # Total snoops (count)
system.tol2bus.snoopTraffic                   4597312                       # Total snoop traffic (bytes)
system.tol2bus.snoop_fanout::samples           522106                       # Request fanout histogram
system.tol2bus.snoop_fanout::mean            0.339297                       # Request fanout histogram
system.tol2bus.snoop_fanout::stdev           0.473471                       # Request fanout histogram
system.tol2bus.snoop_fanout::underflows             0      0.00%      0.00% # Request fanout histogram
system.tol2bus.snoop_fanout::0                 344957     66.07%     66.07% # Request fanout histogram
system.tol2bus.snoop_fanout::1                 177149     33.93%    100.00% # Request fanout histogram
system.tol2bus.snoop_fanout::2                      0      0.00%    100.00% # Request fanout histogram
system.tol2bus.snoop_fanout::3                      0      0.00%    100.00% # Request fanout histogram
system.tol2bus.snoop_fanout::4                      0      0.00%    100.00% # Request fanout histogram
system.tol2bus.snoop_fanout::overflows              0      0.00%    100.00% # Request fanout histogram
system.tol2bus.snoop_fanout::min_value              0                       # Request fanout histogram
system.tol2bus.snoop_fanout::max_value              1                       # Request fanout histogram
system.tol2bus.snoop_fanout::total             522106                       # Request fanout histogram
system.tol2bus.power_state.pwrStateResidencyTicks::UNDEFINED 137205189500                       # Cumulative time (in ticks) in various power states
system.tol2bus.reqLayer0.occupancy          269315500                       # Layer occupancy (ticks)
system.tol2bus.reqLayer0.utilization              0.2                       # Layer utilization (%)
system.tol2bus.respLayer0.occupancy           3974000                       # Layer occupancy (ticks)
system.tol2bus.respLayer0.utilization             0.0                       # Layer utilization (%)
system.tol2bus.respLayer1.occupancy         191613000                       # Layer occupancy (ticks)
system.tol2bus.respLayer1.utilization             0.1                       # Layer utilization (%)
system.voltage_domain.voltage                       1                       # Voltage in Volts

---------- End Simulation Statistics   ----------
