
---------- Begin Simulation Statistics ----------
final_tick                               137351710500                       # Number of ticks from beginning of simulation (restored from checkpoints and never reset)
host_inst_rate                                 525632                       # Simulator instruction rate (inst/s)
host_mem_usage                                 712628                       # Number of bytes of host memory used
host_op_rate                                   804083                       # Simulator op (including micro ops) rate (op/s)
host_seconds                                   120.69                       # Real time elapsed on the host
host_tick_rate                             1138083097                       # Simulator tick rate (ticks/s)
sim_freq                                 1000000000000                       # Frequency of simulated ticks
sim_insts                                    63436880                       # Number of instructions simulated
sim_ops                                      97042214                       # Number of ops (including micro ops) simulated
sim_seconds                                  0.137352                       # Number of seconds simulated
sim_ticks                                137351710500                       # Number of ticks simulated
system.cpu.Branches                           7714394                       # Number of branches fetched
system.cpu.committedInsts                    63436880                       # Number of instructions committed
system.cpu.committedOps                      97042214                       # Number of ops (including micro ops) committed
system.cpu.idle_fraction                     0.000000                       # Percentage of idle cycles
system.cpu.not_idle_fraction                 1.000000                       # Percentage of non-idle cycles
system.cpu.numCycles                        274703421                       # number of cpu cycles simulated
system.cpu.numWorkItemsCompleted                    0                       # number of work items this cpu completed
system.cpu.numWorkItemsStarted                      0                       # number of work items this cpu started
system.cpu.num_busy_cycles               274703420.998000                       # Number of busy cycles
system.cpu.num_cc_register_reads             29902191                       # number of times the CC registers were read
system.cpu.num_cc_register_writes            27168375                       # number of times the CC registers were written
system.cpu.num_conditional_control_insts      4234784                       # number of instructions that are conditional controls
system.cpu.num_fp_alu_accesses                  85206                       # Number of float alu accesses
system.cpu.num_fp_insts                         85206                       # number of float instructions
system.cpu.num_fp_register_reads               119500                       # number of times the floating registers were read
system.cpu.num_fp_register_writes               63458                       # number of times the floating registers were written
system.cpu.num_func_calls                     1924148                       # number of times a function call or return occured
system.cpu.num_idle_cycles                   0.002000                       # Number of idle cycles
system.cpu.num_int_alu_accesses              95088671                       # Number of integer alu accesses
system.cpu.num_int_insts                     95088671                       # number of integer instructions
system.cpu.num_int_register_reads           214307215                       # number of times the integer registers were read
system.cpu.num_int_register_writes           77409630                       # number of times the integer registers were written
system.cpu.num_load_insts                    26073751                       # Number of load instructions
system.cpu.num_mem_refs                      36099173                       # number of memory refs
system.cpu.num_store_insts                   10025422                       # Number of store instructions
system.cpu.num_vec_alu_accesses                     0                       # Number of vector alu accesses
system.cpu.num_vec_insts                            0                       # number of vector instructions
system.cpu.num_vec_register_reads                   0                       # number of times the vector registers were read
system.cpu.num_vec_register_writes                  0                       # number of times the vector registers were written
system.cpu.op_class::No_OpClass                976243      1.01%      1.01% # Class of executed instruction
system.cpu.op_class::IntAlu                  59879196     61.70%     62.71% # Class of executed instruction
system.cpu.op_class::IntMult                       74      0.00%     62.71% # Class of executed instruction
system.cpu.op_class::IntDiv                     36240      0.04%     62.75% # Class of executed instruction
system.cpu.op_class::FloatAdd                    5590      0.01%     62.75% # Class of executed instruction
system.cpu.op_class::FloatCmp                       0      0.00%     62.75% # Class of executed instruction
system.cpu.op_class::FloatCvt                    1232      0.00%     62.75% # Class of executed instruction
system.cpu.op_class::FloatMult                      0      0.00%     62.75% # Class of executed instruction
system.cpu.op_class::FloatMultAcc                   0      0.00%     62.75% # Class of executed instruction
system.cpu.op_class::FloatDiv                       0      0.00%     62.75% # Class of executed instruction
system.cpu.op_class::FloatMisc                      0      0.00%     62.75% # Class of executed instruction
system.cpu.op_class::FloatSqrt                      0      0.00%     62.75% # Class of executed instruction
system.cpu.op_class::SimdAdd                     6716      0.01%     62.76% # Class of executed instruction
system.cpu.op_class::SimdAddAcc                     0      0.00%     62.76% # Class of executed instruction
system.cpu.op_class::SimdAlu                    12162      0.01%     62.77% # Class of executed instruction
system.cpu.op_class::SimdCmp                        6      0.00%     62.77% # Class of executed instruction
system.cpu.op_class::SimdCvt                    13804      0.01%     62.79% # Class of executed instruction
system.cpu.op_class::SimdMisc                   12230      0.01%     62.80% # Class of executed instruction
system.cpu.op_class::SimdMult                       0      0.00%     62.80% # Class of executed instruction
system.cpu.op_class::SimdMultAcc                    0      0.00%     62.80% # Class of executed instruction
system.cpu.op_class::SimdShift                    436      0.00%     62.80% # Class of executed instruction
system.cpu.op_class::SimdShiftAcc                   0      0.00%     62.80% # Class of executed instruction
system.cpu.op_class::SimdDiv                        0      0.00%     62.80% # Class of executed instruction
system.cpu.op_class::SimdSqrt                       0      0.00%     62.80% # Class of executed instruction
system.cpu.op_class::SimdFloatAdd                  10      0.00%     62.80% # Class of executed instruction
system.cpu.op_class::SimdFloatAlu                   0      0.00%     62.80% # Class of executed instruction
system.cpu.op_class::SimdFloatCmp                   0      0.00%     62.80% # Class of executed instruction
system.cpu.op_class::SimdFloatCvt                  30      0.00%     62.80% # Class of executed instruction
system.cpu.op_class::SimdFloatDiv                   0      0.00%     62.80% # Class of executed instruction
system.cpu.op_class::SimdFloatMisc                  0      0.00%     62.80% # Class of executed instruction
system.cpu.op_class::SimdFloatMult                 12      0.00%     62.80% # Class of executed instruction
system.cpu.op_class::SimdFloatMultAcc               0      0.00%     62.80% # Class of executed instruction
system.cpu.op_class::SimdFloatSqrt                  0      0.00%     62.80% # Class of executed instruction
system.cpu.op_class::SimdReduceAdd                  0      0.00%     62.80% # Class of executed instruction
system.cpu.op_class::SimdReduceAlu                  0      0.00%     62.80% # Class of executed instruction
system.cpu.op_class::SimdReduceCmp                  0      0.00%     62.80% # Class of executed instruction
system.cpu.op_class::SimdFloatReduceAdd             0      0.00%     62.80% # Class of executed instruction
system.cpu.op_class::SimdFloatReduceCmp             0      0.00%     62.80% # Class of executed instruction
system.cpu.op_class::SimdAes                        0      0.00%     62.80% # Class of executed instruction
system.cpu.op_class::SimdAesMix                     0      0.00%     62.80% # Class of executed instruction
system.cpu.op_class::SimdSha1Hash                   0      0.00%     62.80% # Class of executed instruction
system.cpu.op_class::SimdSha1Hash2                  0      0.00%     62.80% # Class of executed instruction
system.cpu.op_class::SimdSha256Hash                 0      0.00%     62.80% # Class of executed instruction
system.cpu.op_class::SimdSha256Hash2                0      0.00%     62.80% # Class of executed instruction
system.cpu.op_class::SimdShaSigma2                  0      0.00%     62.80% # Class of executed instruction
system.cpu.op_class::SimdShaSigma3                  0      0.00%     62.80% # Class of executed instruction
system.cpu.op_class::SimdPredAlu                    0      0.00%     62.80% # Class of executed instruction
system.cpu.op_class::MemRead                 26056914     26.85%     89.65% # Class of executed instruction
system.cpu.op_class::MemWrite                10011984     10.32%     99.97% # Class of executed instruction
system.cpu.op_class::FloatMemRead               16837      0.02%     99.99% # Class of executed instruction
system.cpu.op_class::FloatMemWrite              13438      0.01%    100.00% # Class of executed instruction
system.cpu.op_class::IprAccess                      0      0.00%    100.00% # Class of executed instruction
system.cpu.op_class::InstPrefetch                   0      0.00%    100.00% # Class of executed instruction
system.cpu.op_class::total                   97043154                       # Class of executed instruction
system.cpu.workload.numSyscalls                   100                       # Number of system calls
system.membus.snoop_filter.hit_multi_requests            0                       # Number of requests hitting in the snoop filter with multiple (>1) holders of the requested data.
system.membus.snoop_filter.hit_multi_snoops            0                       # Number of snoops hitting in the snoop filter with multiple (>1) holders of the requested data.
system.membus.snoop_filter.hit_single_requests       179060                       # Number of requests hitting in the snoop filter with a single holder of the requested data.
system.membus.snoop_filter.hit_single_snoops            0                       # Number of snoops hitting in the snoop filter with a single holder of the requested data.
system.membus.snoop_filter.tot_requests        367281                       # Total number of requests made to the snoop filter.
system.membus.snoop_filter.tot_snoops               0                       # Total number of snoops made to the snoop filter.
system.tol2bus.snoop_filter.hit_multi_requests            0                       # Number of requests hitting in the snoop filter with multiple (>1) holders of the requested data.
system.tol2bus.snoop_filter.hit_multi_snoops            0                       # Number of snoops hitting in the snoop filter with multiple (>1) holders of the requested data.
system.tol2bus.snoop_filter.hit_single_requests       188386                       # Number of requests hitting in the snoop filter with a single holder of the requested data.
system.tol2bus.snoop_filter.hit_single_snoops       168618                       # Number of snoops hitting in the snoop filter with a single holder of the requested data.
system.tol2bus.snoop_filter.tot_requests       383973                       # Total number of requests made to the snoop filter.
system.tol2bus.snoop_filter.tot_snoops         168618                       # Total number of snoops made to the snoop filter.
system.clk_domain.clock                          1000                       # Clock period in ticks
system.cpu.dcache.demand_hits::.cpu.data     35939861                       # number of demand (read+write) hits
system.cpu.dcache.demand_hits::total         35939861                       # number of demand (read+write) hits
system.cpu.dcache.overall_hits::.cpu.data     35939861                       # number of overall hits
system.cpu.dcache.overall_hits::total        35939861                       # number of overall hits
system.cpu.dcache.demand_misses::.cpu.data       191613                       # number of demand (read+write) misses
system.cpu.dcache.demand_misses::total         191613                       # number of demand (read+write) misses
system.cpu.dcache.overall_misses::.cpu.data       191613                       # number of overall misses
system.cpu.dcache.overall_misses::total        191613                       # number of overall misses
system.cpu.dcache.demand_miss_latency::.cpu.data  15549706500                       # number of demand (read+write) miss cycles
system.cpu.dcache.demand_miss_latency::total  15549706500                       # number of demand (read+write) miss cycles
system.cpu.dcache.overall_miss_latency::.cpu.data  15549706500                       # number of overall miss cycles
system.cpu.dcache.overall_miss_latency::total  15549706500                       # number of overall miss cycles
system.cpu.dcache.demand_accesses::.cpu.data     36131474                       # number of demand (read+write) accesses
system.cpu.dcache.demand_accesses::total     36131474                       # number of demand (read+write) accesses
system.cpu.dcache.overall_accesses::.cpu.data     36131474                       # number of overall (read+write) accesses
system.cpu.dcache.overall_accesses::total     36131474                       # number of overall (read+write) accesses
system.cpu.dcache.demand_miss_rate::.cpu.data     0.005303                       # miss rate for demand accesses
system.cpu.dcache.demand_miss_rate::total     0.005303                       # miss rate for demand accesses
system.cpu.dcache.overall_miss_rate::.cpu.data     0.005303                       # miss rate for overall accesses
system.cpu.dcache.overall_miss_rate::total     0.005303                       # miss rate for overall accesses
system.cpu.dcache.demand_avg_miss_latency::.cpu.data 81151.625934                       # average overall miss latency
system.cpu.dcache.demand_avg_miss_latency::total 81151.625934                       # average overall miss latency
system.cpu.dcache.overall_avg_miss_latency::.cpu.data 81151.625934                       # average overall miss latency
system.cpu.dcache.overall_avg_miss_latency::total 81151.625934                       # average overall miss latency
system.cpu.dcache.blocked_cycles::no_mshrs            0                       # number of cycles access was blocked
system.cpu.dcache.blocked_cycles::no_targets            0                       # number of cycles access was blocked
system.cpu.dcache.blocked::no_mshrs                 0                       # number of cycles access was blocked
system.cpu.dcache.blocked::no_targets               0                       # number of cycles access was blocked
system.cpu.dcache.avg_blocked_cycles::no_mshrs          nan                       # average number of cycles each access was blocked
system.cpu.dcache.avg_blocked_cycles::no_targets          nan                       # average number of cycles each access was blocked
system.cpu.dcache.writebacks::.writebacks       153756                       # number of writebacks
system.cpu.dcache.writebacks::total            153756                       # number of writebacks
system.cpu.dcache.demand_mshr_misses::.cpu.data       191613                       # number of demand (read+write) MSHR misses
system.cpu.dcache.demand_mshr_misses::total       191613                       # number of demand (read+write) MSHR misses
system.cpu.dcache.overall_mshr_misses::.cpu.data       191613                       # number of overall MSHR misses
system.cpu.dcache.overall_mshr_misses::total       191613                       # number of overall MSHR misses
system.cpu.dcache.demand_mshr_miss_latency::.cpu.data  15358093500                       # number of demand (read+write) MSHR miss cycles
system.cpu.dcache.demand_mshr_miss_latency::total  15358093500                       # number of demand (read+write) MSHR miss cycles
system.cpu.dcache.overall_mshr_miss_latency::.cpu.data  15358093500                       # number of overall MSHR miss cycles
system.cpu.dcache.overall_mshr_miss_latency::total  15358093500                       # number of overall MSHR miss cycles
system.cpu.dcache.demand_mshr_miss_rate::.cpu.data     0.005303                       # mshr miss rate for demand accesses
system.cpu.dcache.demand_mshr_miss_rate::total     0.005303                       # mshr miss rate for demand accesses
system.cpu.dcache.overall_mshr_miss_rate::.cpu.data     0.005303                       # mshr miss rate for overall accesses
system.cpu.dcache.overall_mshr_miss_rate::total     0.005303                       # mshr miss rate for overall accesses
system.cpu.dcache.demand_avg_mshr_miss_latency::.cpu.data 80151.625934                       # average overall mshr miss latency
system.cpu.dcache.demand_avg_mshr_miss_latency::total 80151.625934                       # average overall mshr miss latency
system.cpu.dcache.overall_avg_mshr_miss_latency::.cpu.data 80151.625934                       # average overall mshr miss latency
system.cpu.dcache.overall_avg_mshr_miss_latency::total 80151.625934                       # average overall mshr miss latency
system.cpu.dcache.replacements                 187517                       # number of replacements
system.cpu.dcache.ReadReq_hits::.cpu.data     25993655                       # number of ReadReq hits
system.cpu.dcache.ReadReq_hits::total        25993655                       # number of ReadReq hits
system.cpu.dcache.ReadReq_misses::.cpu.data        80216                       # number of ReadReq misses
system.cpu.dcache.ReadReq_misses::total         80216                       # number of ReadReq misses
system.cpu.dcache.ReadReq_miss_latency::.cpu.data   6889140500                       # number of ReadReq miss cycles
system.cpu.dcache.ReadReq_miss_latency::total   6889140500                       # number of ReadReq miss cycles
system.cpu.dcache.ReadReq_accesses::.cpu.data     26073871                       # number of ReadReq accesses(hits+misses)
system.cpu.dcache.ReadReq_accesses::total     26073871                       # number of ReadReq accesses(hits+misses)
system.cpu.dcache.ReadReq_miss_rate::.cpu.data     0.003076                       # miss rate for ReadReq accesses
system.cpu.dcache.ReadReq_miss_rate::total     0.003076                       # miss rate for ReadReq accesses
system.cpu.dcache.ReadReq_avg_miss_latency::.cpu.data 85882.373841                       # average ReadReq miss latency
system.cpu.dcache.ReadReq_avg_miss_latency::total 85882.373841                       # average ReadReq miss latency
system.cpu.dcache.ReadReq_mshr_misses::.cpu.data        80216                       # number of ReadReq MSHR misses
system.cpu.dcache.ReadReq_mshr_misses::total        80216                       # number of ReadReq MSHR misses
system.cpu.dcache.ReadReq_mshr_miss_latency::.cpu.data   6808924500                       # number of ReadReq MSHR miss cycles
system.cpu.dcache.ReadReq_mshr_miss_latency::total   6808924500                       # number of ReadReq MSHR miss cycles
system.cpu.dcache.ReadReq_mshr_miss_rate::.cpu.data     0.003076                       # mshr miss rate for ReadReq accesses
system.cpu.dcache.ReadReq_mshr_miss_rate::total     0.003076                       # mshr miss rate for ReadReq accesses
system.cpu.dcache.ReadReq_avg_mshr_miss_latency::.cpu.data 84882.373841                       # average ReadReq mshr miss latency
system.cpu.dcache.ReadReq_avg_mshr_miss_latency::total 84882.373841                       # average ReadReq mshr miss latency
system.cpu.dcache.WriteReq_hits::.cpu.data      9946206                       # number of WriteReq hits
system.cpu.dcache.WriteReq_hits::total        9946206                       # number of WriteReq hits
system.cpu.dcache.WriteReq_misses::.cpu.data       111397                       # number of WriteReq misses
system.cpu.dcache.WriteReq_misses::total       111397                       # number of WriteReq misses
system.cpu.dcache.WriteReq_miss_latency::.cpu.data   8660566000                       # number of WriteReq miss cycles
system.cpu.dcache.WriteReq_miss_latency::total   8660566000                       # number of WriteReq miss cycles
system.cpu.dcache.WriteReq_accesses::.cpu.data     10057603                       # number of WriteReq accesses(hits+misses)
system.cpu.dcache.WriteReq_accesses::total     10057603                       # number of WriteReq accesses(hits+misses)
system.cpu.dcache.WriteReq_miss_rate::.cpu.data     0.011076                       # miss rate for WriteReq accesses
system.cpu.dcache.WriteReq_miss_rate::total     0.011076                       # miss rate for WriteReq accesses
system.cpu.dcache.WriteReq_avg_miss_latency::.cpu.data 77745.055971                       # average WriteReq miss latency
system.cpu.dcache.WriteReq_avg_miss_latency::total 77745.055971                       # average WriteReq miss latency
system.cpu.dcache.WriteReq_mshr_misses::.cpu.data       111397                       # number of WriteReq MSHR misses
system.cpu.dcache.WriteReq_mshr_misses::total       111397                       # number of WriteReq MSHR misses
system.cpu.dcache.WriteReq_mshr_miss_latency::.cpu.data   8549169000                       # number of WriteReq MSHR miss cycles
system.cpu.dcache.WriteReq_mshr_miss_latency::total   8549169000                       # number of WriteReq MSHR miss cycles
system.cpu.dcache.WriteReq_mshr_miss_rate::.cpu.data     0.011076                       # mshr miss rate for WriteReq accesses
system.cpu.dcache.WriteReq_mshr_miss_rate::total     0.011076                       # mshr miss rate for WriteReq accesses
system.cpu.dcache.WriteReq_avg_mshr_miss_latency::.cpu.data 76745.055971                       # average WriteReq mshr miss latency
system.cpu.dcache.WriteReq_avg_mshr_miss_latency::total 76745.055971                       # average WriteReq mshr miss latency
system.cpu.dcache.power_state.pwrStateResidencyTicks::UNDEFINED 137351710500                       # Cumulative time (in ticks) in various power states
system.cpu.dcache.tags.tagsinuse          4081.828748                       # Cycle average of tags in use
system.cpu.dcache.tags.total_refs            36131474                       # Total number of references to valid blocks.
system.cpu.dcache.tags.sampled_refs            191613                       # Sample count of references to valid blocks.
system.cpu.dcache.tags.avg_refs            188.564836                       # Average number of references to valid blocks.
system.cpu.dcache.tags.warmup_cycle            174500                       # Cycle when the warmup percentage was hit.
system.cpu.dcache.tags.occ_blocks::.cpu.data  4081.828748                       # Average occupied blocks per requestor
system.cpu.dcache.tags.occ_percent::.cpu.data     0.996540                       # Average percentage of cache occupancy
system.cpu.dcache.tags.occ_percent::total     0.996540                       # Average percentage of cache occupancy
system.cpu.dcache.tags.occ_task_id_blocks::1024         4096                       # Occupied blocks per task id
system.cpu.dcache.tags.age_task_id_blocks_1024::0           35                       # Occupied blocks per task id
system.cpu.dcache.tags.age_task_id_blocks_1024::1          405                       # Occupied blocks per task id
system.cpu.dcache.tags.age_task_id_blocks_1024::2         3653                       # Occupied blocks per task id
system.cpu.dcache.tags.age_task_id_blocks_1024::3            3                       # Occupied blocks per task id
system.cpu.dcache.tags.occ_task_id_percent::1024            1                       # Percentage of cache occupancy per task id
system.cpu.dcache.tags.tag_accesses          72454561                       # Number of tag accesses
system.cpu.dcache.tags.data_accesses         72454561                       # Number of data accesses
system.cpu.dcache.tags.power_state.pwrStateResidencyTicks::UNDEFINED 137351710500                       # Cumulative time (in ticks) in various power states
system.cpu.dtb.rdAccesses                    26074093                       # TLB accesses on read requests
system.cpu.dtb.wrAccesses                    10058351                       # TLB accesses on write requests
system.cpu.dtb.rdMisses                          1987                       # TLB misses on read requests
system.cpu.dtb.wrMisses                          1560                       # TLB misses on write requests
system.cpu.dtb.walker.power_state.pwrStateResidencyTicks::UNDEFINED 137351710500                       # Cumulative time (in ticks) in various power states
system.cpu.dtb_walker_cache.blocked_cycles::no_mshrs            0                       # number of cycles access was blocked
system.cpu.dtb_walker_cache.blocked_cycles::no_targets            0                       # number of cycles access was blocked
system.cpu.dtb_walker_cache.blocked::no_mshrs            0                       # number of cycles access was blocked
system.cpu.dtb_walker_cache.blocked::no_targets            0                       # number of cycles access was blocked
system.cpu.dtb_walker_cache.avg_blocked_cycles::no_mshrs          nan                       # average number of cycles each access was blocked
system.cpu.dtb_walker_cache.avg_blocked_cycles::no_targets          nan                       # average number of cycles each access was blocked
system.cpu.dtb_walker_cache.replacements            0                       # number of replacements
system.cpu.dtb_walker_cache.power_state.pwrStateResidencyTicks::UNDEFINED 137351710500                       # Cumulative time (in ticks) in various power states
system.cpu.dtb_walker_cache.tags.tagsinuse            0                       # Cycle average of tags in use
system.cpu.dtb_walker_cache.tags.total_refs            0                       # Total number of references to valid blocks.
system.cpu.dtb_walker_cache.tags.sampled_refs            0                       # Sample count of references to valid blocks.
system.cpu.dtb_walker_cache.tags.avg_refs          nan                       # Average number of references to valid blocks.
system.cpu.dtb_walker_cache.tags.warmup_cycle            0                       # Cycle when the warmup percentage was hit.
system.cpu.dtb_walker_cache.tags.tag_accesses            0                       # Number of tag accesses
system.cpu.dtb_walker_cache.tags.data_accesses            0                       # Number of data accesses
system.cpu.dtb_walker_cache.tags.power_state.pwrStateResidencyTicks::UNDEFINED 137351710500                       # Cumulative time (in ticks) in various power states
system.cpu.icache.demand_hits::.cpu.inst     85584522                       # number of demand (read+write) hits
system.cpu.icache.demand_hits::total         85584522                       # number of demand (read+write) hits
system.cpu.icache.overall_hits::.cpu.inst     85584522                       # number of overall hits
system.cpu.icache.overall_hits::total        85584522                       # number of overall hits
system.cpu.icache.demand_misses::.cpu.inst         3974                       # number of demand (read+write) misses
system.cpu.icache.demand_misses::total           3974                       # number of demand (read+write) misses
system.cpu.icache.overall_misses::.cpu.inst         3974                       # number of overall misses
system.cpu.icache.overall_misses::total          3974                       # number of overall misses
system.cpu.icache.demand_miss_latency::.cpu.inst    312501000                       # number of demand (read+write) miss cycles
system.cpu.icache.demand_miss_latency::total    312501000                       # number of demand (read+write) miss cycles
system.cpu.icache.overall_miss_latency::.cpu.inst    312501000                       # number of overall miss cycles
system.cpu.icache.overall_miss_latency::total    312501000                       # number of overall miss cycles
system.cpu.icache.demand_accesses::.cpu.inst     85588496                       # number of demand (read+write) accesses
system.cpu.icache.demand_accesses::total     85588496                       # number of demand (read+write) accesses
system.cpu.icache.overall_accesses::.cpu.inst     85588496                       # number of overall (read+write) accesses
system.cpu.icache.overall_accesses::total     85588496                       # number of overall (read+write) accesses
system.cpu.icache.demand_miss_rate::.cpu.inst     0.000046                       # miss rate for demand accesses
system.cpu.icache.demand_miss_rate::total     0.000046                       # miss rate for demand accesses
system.cpu.icache.overall_miss_rate::.cpu.inst     0.000046                       # miss rate for overall accesses
system.cpu.icache.overall_miss_rate::total     0.000046                       # miss rate for overall accesses
system.cpu.icache.demand_avg_miss_latency::.cpu.inst 78636.386512                       # average overall miss latency
system.cpu.icache.demand_avg_miss_latency::total 78636.386512                       # average overall miss latency
system.cpu.icache.overall_avg_miss_latency::.cpu.inst 78636.386512                       # average overall miss latency
system.cpu.icache.overall_avg_miss_latency::total 78636.386512                       # average overall miss latency
system.cpu.icache.blocked_cycles::no_mshrs            0                       # number of cycles access was blocked
system.cpu.icache.blocked_cycles::no_targets            0                       # number of cycles access was blocked
system.cpu.icache.blocked::no_mshrs                 0                       # number of cycles access was blocked
system.cpu.icache.blocked::no_targets               0                       # number of cycles access was blocked
system.cpu.icache.avg_blocked_cycles::no_mshrs          nan                       # average number of cycles each access was blocked
system.cpu.icache.avg_blocked_cycles::no_targets          nan                       # average number of cycles each access was blocked
system.cpu.icache.writebacks::.writebacks          869                       # number of writebacks
system.cpu.icache.writebacks::total               869                       # number of writebacks
system.cpu.icache.demand_mshr_misses::.cpu.inst         3974                       # number of demand (read+write) MSHR misses
system.cpu.icache.demand_mshr_misses::total         3974                       # number of demand (read+write) MSHR misses
system.cpu.icache.overall_mshr_misses::.cpu.inst         3974                       # number of overall MSHR misses
system.cpu.icache.overall_mshr_misses::total         3974                       # number of overall MSHR misses
system.cpu.icache.demand_mshr_miss_latency::.cpu.inst    308527000                       # number of demand (read+write) MSHR miss cycles
system.cpu.icache.demand_mshr_miss_latency::total    308527000                       # number of demand (read+write) MSHR miss cycles
system.cpu.icache.overall_mshr_miss_latency::.cpu.inst    308527000                       # number of overall MSHR miss cycles
system.cpu.icache.overall_mshr_miss_latency::total    308527000                       # number of overall MSHR miss cycles
system.cpu.icache.demand_mshr_miss_rate::.cpu.inst     0.000046                       # mshr miss rate for demand accesses
system.cpu.icache.demand_mshr_miss_rate::total     0.000046                       # mshr miss rate for demand accesses
system.cpu.icache.overall_mshr_miss_rate::.cpu.inst     0.000046                       # mshr miss rate for overall accesses
system.cpu.icache.overall_mshr_miss_rate::total     0.000046                       # mshr miss rate for overall accesses
system.cpu.icache.demand_avg_mshr_miss_latency::.cpu.inst 77636.386512                       # average overall mshr miss latency
system.cpu.icache.demand_avg_mshr_miss_latency::total 77636.386512                       # average overall mshr miss latency
system.cpu.icache.overall_avg_mshr_miss_latency::.cpu.inst 77636.386512                       # average overall mshr miss latency
system.cpu.icache.overall_avg_mshr_miss_latency::total 77636.386512                       # average overall mshr miss latency
system.cpu.icache.replacements                    869                       # number of replacements
system.cpu.icache.ReadReq_hits::.cpu.inst     85584522                       # number of ReadReq hits
system.cpu.icache.ReadReq_hits::total        85584522                       # number of ReadReq hits
system.cpu.icache.ReadReq_misses::.cpu.inst         3974                       # number of ReadReq misses
system.cpu.icache.ReadReq_misses::total          3974                       # number of ReadReq misses
system.cpu.icache.ReadReq_miss_latency::.cpu.inst    312501000                       # number of ReadReq miss cycles
system.cpu.icache.ReadReq_miss_latency::total    312501000                       # number of ReadReq miss cycles
system.cpu.icache.ReadReq_accesses::.cpu.inst     85588496                       # number of ReadReq accesses(hits+misses)
system.cpu.icache.ReadReq_accesses::total     85588496                       # number of ReadReq accesses(hits+misses)
system.cpu.icache.ReadReq_miss_rate::.cpu.inst     0.000046                       # miss rate for ReadReq accesses
system.cpu.icache.ReadReq_miss_rate::total     0.000046                       # miss rate for ReadReq accesses
system.cpu.icache.ReadReq_avg_miss_latency::.cpu.inst 78636.386512                       # average ReadReq miss latency
system.cpu.icache.ReadReq_avg_miss_latency::total 78636.386512                       # average ReadReq miss latency
system.cpu.icache.ReadReq_mshr_misses::.cpu.inst         3974                       # number of ReadReq MSHR misses
system.cpu.icache.ReadReq_mshr_misses::total         3974                       # number of ReadReq MSHR misses
system.cpu.icache.ReadReq_mshr_miss_latency::.cpu.inst    308527000                       # number of ReadReq MSHR miss cycles
system.cpu.icache.ReadReq_mshr_miss_latency::total    308527000                       # number of ReadReq MSHR miss cycles
system.cpu.icache.ReadReq_mshr_miss_rate::.cpu.inst     0.000046                       # mshr miss rate for ReadReq accesses
system.cpu.icache.ReadReq_mshr_miss_rate::total     0.000046                       # mshr miss rate for ReadReq accesses
system.cpu.icache.ReadReq_avg_mshr_miss_latency::.cpu.inst 77636.386512                       # average ReadReq mshr miss latency
system.cpu.icache.ReadReq_avg_mshr_miss_latency::total 77636.386512                       # average ReadReq mshr miss latency
system.cpu.icache.power_state.pwrStateResidencyTicks::UNDEFINED 137351710500                       # Cumulative time (in ticks) in various power states
system.cpu.icache.tags.tagsinuse          2681.637998                       # Cycle average of tags in use
system.cpu.icache.tags.total_refs            85588496                       # Total number of references to valid blocks.
system.cpu.icache.tags.sampled_refs              3974                       # Sample count of references to valid blocks.
system.cpu.icache.tags.avg_refs          21537.115249                       # Average number of references to valid blocks.
system.cpu.icache.tags.warmup_cycle             87500                       # Cycle when the warmup percentage was hit.
system.cpu.icache.tags.occ_blocks::.cpu.inst  2681.637998                       # Average occupied blocks per requestor
system.cpu.icache.tags.occ_percent::.cpu.inst     0.654697                       # Average percentage of cache occupancy
system.cpu.icache.tags.occ_percent::total     0.654697                       # Average percentage of cache occupancy
system.cpu.icache.tags.occ_task_id_blocks::1024         3105                       # Occupied blocks per task id
system.cpu.icache.tags.age_task_id_blocks_1024::0           56                       # Occupied blocks per task id
system.cpu.icache.tags.age_task_id_blocks_1024::1          358                       # Occupied blocks per task id
system.cpu.icache.tags.age_task_id_blocks_1024::2           34                       # Occupied blocks per task id
system.cpu.icache.tags.age_task_id_blocks_1024::3          212                       # Occupied blocks per task id
system.cpu.icache.tags.age_task_id_blocks_1024::4         2445                       # Occupied blocks per task id
system.cpu.icache.tags.occ_task_id_percent::1024     0.758057                       # Percentage of cache occupancy per task id
system.cpu.icache.tags.tag_accesses         171180966                       # Number of tag accesses
system.cpu.icache.tags.data_accesses        171180966                       # Number of data accesses
system.cpu.icache.tags.power_state.pwrStateResidencyTicks::UNDEFINED 137351710500                       # Cumulative time (in ticks) in various power states
system.cpu.interrupts.clk_domain.clock           8000                       # Clock period in ticks
system.cpu.itb.rdAccesses                           0                       # TLB accesses on read requests
system.cpu.itb.wrAccesses                    85588625                       # TLB accesses on write requests
system.cpu.itb.rdMisses                             0                       # TLB misses on read requests
system.cpu.itb.wrMisses                           542                       # TLB misses on write requests
system.cpu.itb.walker.power_state.pwrStateResidencyTicks::UNDEFINED 137351710500                       # Cumulative time (in ticks) in various power states
system.cpu.itb_walker_cache.blocked_cycles::no_mshrs            0                       # number of cycles access was blocked
system.cpu.itb_walker_cache.blocked_cycles::no_targets            0                       # number of cycles access was blocked
system.cpu.itb_walker_cache.blocked::no_mshrs            0                       # number of cycles access was blocked
system.cpu.itb_walker_cache.blocked::no_targets            0                       # number of cycles access was blocked
system.cpu.itb_walker_cache.avg_blocked_cycles::no_mshrs          nan                       # average number of cycles each access was blocked
system.cpu.itb_walker_cache.avg_blocked_cycles::no_targets          nan                       # average number of cycles each access was blocked
system.cpu.itb_walker_cache.replacements            0                       # number of replacements
system.cpu.itb_walker_cache.power_state.pwrStateResidencyTicks::UNDEFINED 137351710500                       # Cumulative time (in ticks) in various power states
system.cpu.itb_walker_cache.tags.tagsinuse            0                       # Cycle average of tags in use
system.cpu.itb_walker_cache.tags.total_refs            0                       # Total number of references to valid blocks.
system.cpu.itb_walker_cache.tags.sampled_refs            0                       # Sample count of references to valid blocks.
system.cpu.itb_walker_cache.tags.avg_refs          nan                       # Average number of references to valid blocks.
system.cpu.itb_walker_cache.tags.warmup_cycle            0                       # Cycle when the warmup percentage was hit.
system.cpu.itb_walker_cache.tags.tag_accesses            0                       # Number of tag accesses
system.cpu.itb_walker_cache.tags.data_accesses            0                       # Number of data accesses
system.cpu.itb_walker_cache.tags.power_state.pwrStateResidencyTicks::UNDEFINED 137351710500                       # Cumulative time (in ticks) in various power states
system.cpu.power_state.pwrStateResidencyTicks::ON 137351710500                       # Cumulative time (in ticks) in various power states
system.cpu.thread_0.numInsts                        0                       # Number of Instructions committed
system.cpu.thread_0.numOps                          0                       # Number of Ops committed
system.cpu.thread_0.numMemRefs                      0                       # Number of Memory References
system.cpu_clk_domain.clock                       500                       # Clock period in ticks
system.cpu_voltage_domain.voltage                   1                       # Voltage in Volts
system.l2.demand_hits::.cpu.inst                   25                       # number of demand (read+write) hits
system.l2.demand_hits::.cpu.data                 7341                       # number of demand (read+write) hits
system.l2.demand_hits::total                     7366                       # number of demand (read+write) hits
system.l2.overall_hits::.cpu.inst                  25                       # number of overall hits
system.l2.overall_hits::.cpu.data                7341                       # number of overall hits
system.l2.overall_hits::total                    7366                       # number of overall hits
system.l2.demand_misses::.cpu.inst               3949                       # number of demand (read+write) misses
system.l2.demand_misses::.cpu.data             184272                       # number of demand (read+write) misses
system.l2.demand_misses::total                 188221                       # number of demand (read+write) misses
system.l2.overall_misses::.cpu.inst              3949                       # number of overall misses
system.l2.overall_misses::.cpu.data            184272                       # number of overall misses
system.l2.overall_misses::total                188221                       # number of overall misses
system.l2.demand_miss_latency::.cpu.inst    302303500                       # number of demand (read+write) miss cycles
system.l2.demand_miss_latency::.cpu.data  14993543000                       # number of demand (read+write) miss cycles
system.l2.demand_miss_latency::total      15295846500                       # number of demand (read+write) miss cycles
system.l2.overall_miss_latency::.cpu.inst    302303500                       # number of overall miss cycles
system.l2.overall_miss_latency::.cpu.data  14993543000                       # number of overall miss cycles
system.l2.overall_miss_latency::total     15295846500                       # number of overall miss cycles
system.l2.demand_accesses::.cpu.inst             3974                       # number of demand (read+write) accesses
system.l2.demand_accesses::.cpu.data           191613                       # number of demand (read+write) accesses
system.l2.demand_accesses::total               195587                       # number of demand (read+write) accesses
system.l2.overall_accesses::.cpu.inst            3974                       # number of overall (read+write) accesses
system.l2.overall_accesses::.cpu.data          191613                       # number of overall (read+write) accesses
system.l2.overall_accesses::total              195587                       # number of overall (read+write) accesses
system.l2.demand_miss_rate::.cpu.inst        0.993709                       # miss rate for demand accesses
system.l2.demand_miss_rate::.cpu.data        0.961688                       # miss rate for demand accesses
system.l2.demand_miss_rate::total            0.962339                       # miss rate for demand accesses
system.l2.overall_miss_rate::.cpu.inst       0.993709                       # miss rate for overall accesses
system.l2.overall_miss_rate::.cpu.data       0.961688                       # miss rate for overall accesses
system.l2.overall_miss_rate::total           0.962339                       # miss rate for overall accesses
system.l2.demand_avg_miss_latency::.cpu.inst 76551.911876                       # average overall miss latency
system.l2.demand_avg_miss_latency::.cpu.data 81366.366024                       # average overall miss latency
system.l2.demand_avg_miss_latency::total 81265.355619                       # average overall miss latency
system.l2.overall_avg_miss_latency::.cpu.inst 76551.911876                       # average overall miss latency
system.l2.overall_avg_miss_latency::.cpu.data 81366.366024                       # average overall miss latency
system.l2.overall_avg_miss_latency::total 81265.355619                       # average overall miss latency
system.l2.blocked_cycles::no_mshrs                  0                       # number of cycles access was blocked
system.l2.blocked_cycles::no_targets                0                       # number of cycles access was blocked
system.l2.blocked::no_mshrs                         0                       # number of cycles access was blocked
system.l2.blocked::no_targets                       0                       # number of cycles access was blocked
system.l2.avg_blocked_cycles::no_mshrs            nan                       # average number of cycles each access was blocked
system.l2.avg_blocked_cycles::no_targets          nan                       # average number of cycles each access was blocked
system.l2.writebacks::.writebacks              145645                       # number of writebacks
system.l2.writebacks::total                    145645                       # number of writebacks
system.l2.demand_mshr_misses::.cpu.inst          3949                       # number of demand (read+write) MSHR misses
system.l2.demand_mshr_misses::.cpu.data        184272                       # number of demand (read+write) MSHR misses
system.l2.demand_mshr_misses::total            188221                       # number of demand (read+write) MSHR misses
system.l2.overall_mshr_misses::.cpu.inst         3949                       # number of overall MSHR misses
system.l2.overall_mshr_misses::.cpu.data       184272                       # number of overall MSHR misses
system.l2.overall_mshr_misses::total           188221                       # number of overall MSHR misses
system.l2.demand_mshr_miss_latency::.cpu.inst    262813500                       # number of demand (read+write) MSHR miss cycles
system.l2.demand_mshr_miss_latency::.cpu.data  13150823000                       # number of demand (read+write) MSHR miss cycles
system.l2.demand_mshr_miss_latency::total  13413636500                       # number of demand (read+write) MSHR miss cycles
system.l2.overall_mshr_miss_latency::.cpu.inst    262813500                       # number of overall MSHR miss cycles
system.l2.overall_mshr_miss_latency::.cpu.data  13150823000                       # number of overall MSHR miss cycles
system.l2.overall_mshr_miss_latency::total  13413636500                       # number of overall MSHR miss cycles
system.l2.demand_mshr_miss_rate::.cpu.inst     0.993709                       # mshr miss rate for demand accesses
system.l2.demand_mshr_miss_rate::.cpu.data     0.961688                       # mshr miss rate for demand accesses
system.l2.demand_mshr_miss_rate::total       0.962339                       # mshr miss rate for demand accesses
system.l2.overall_mshr_miss_rate::.cpu.inst     0.993709                       # mshr miss rate for overall accesses
system.l2.overall_mshr_miss_rate::.cpu.data     0.961688                       # mshr miss rate for overall accesses
system.l2.overall_mshr_miss_rate::total      0.962339                       # mshr miss rate for overall accesses
system.l2.demand_avg_mshr_miss_latency::.cpu.inst 66551.911876                       # average overall mshr miss latency
system.l2.demand_avg_mshr_miss_latency::.cpu.data 71366.366024                       # average overall mshr miss latency
system.l2.demand_avg_mshr_miss_latency::total 71265.355619                       # average overall mshr miss latency
system.l2.overall_avg_mshr_miss_latency::.cpu.inst 66551.911876                       # average overall mshr miss latency
system.l2.overall_avg_mshr_miss_latency::.cpu.data 71366.366024                       # average overall mshr miss latency
system.l2.overall_avg_mshr_miss_latency::total 71265.355619                       # average overall mshr miss latency
system.l2.replacements                         322278                       # number of replacements
system.l2.WritebackDirty_hits::.writebacks       153756                       # number of WritebackDirty hits
system.l2.WritebackDirty_hits::total           153756                       # number of WritebackDirty hits
system.l2.WritebackDirty_accesses::.writebacks       153756                       # number of WritebackDirty accesses(hits+misses)
system.l2.WritebackDirty_accesses::total       153756                       # number of WritebackDirty accesses(hits+misses)
system.l2.WritebackClean_hits::.writebacks          869                       # number of WritebackClean hits
system.l2.WritebackClean_hits::total              869                       # number of WritebackClean hits
system.l2.WritebackClean_accesses::.writebacks          869                       # number of WritebackClean accesses(hits+misses)
system.l2.WritebackClean_accesses::total          869                       # number of WritebackClean accesses(hits+misses)
system.l2.CleanEvict_mshr_misses::.writebacks        25400                       # number of CleanEvict MSHR misses
system.l2.CleanEvict_mshr_misses::total         25400                       # number of CleanEvict MSHR misses
system.l2.CleanEvict_mshr_miss_rate::.writebacks          inf                       # mshr miss rate for CleanEvict accesses
system.l2.CleanEvict_mshr_miss_rate::total          inf                       # mshr miss rate for CleanEvict accesses
system.l2.ReadExReq_hits::.cpu.data               746                       # number of ReadExReq hits
system.l2.ReadExReq_hits::total                   746                       # number of ReadExReq hits
system.l2.ReadExReq_misses::.cpu.data          110651                       # number of ReadExReq misses
system.l2.ReadExReq_misses::total              110651                       # number of ReadExReq misses
system.l2.ReadExReq_miss_latency::.cpu.data   8374239500                       # number of ReadExReq miss cycles
system.l2.ReadExReq_miss_latency::total    8374239500                       # number of ReadExReq miss cycles
system.l2.ReadExReq_accesses::.cpu.data        111397                       # number of ReadExReq accesses(hits+misses)
system.l2.ReadExReq_accesses::total            111397                       # number of ReadExReq accesses(hits+misses)
system.l2.ReadExReq_miss_rate::.cpu.data     0.993303                       # miss rate for ReadExReq accesses
system.l2.ReadExReq_miss_rate::total         0.993303                       # miss rate for ReadExReq accesses
system.l2.ReadExReq_avg_miss_latency::.cpu.data 75681.552810                       # average ReadExReq miss latency
system.l2.ReadExReq_avg_miss_latency::total 75681.552810                       # average ReadExReq miss latency
system.l2.ReadExReq_mshr_misses::.cpu.data       110651                       # number of ReadExReq MSHR misses
system.l2.ReadExReq_mshr_misses::total         110651                       # number of ReadExReq MSHR misses
system.l2.ReadExReq_mshr_miss_latency::.cpu.data   7267729500                       # number of ReadExReq MSHR miss cycles
system.l2.ReadExReq_mshr_miss_latency::total   7267729500                       # number of ReadExReq MSHR miss cycles
system.l2.ReadExReq_mshr_miss_rate::.cpu.data     0.993303                       # mshr miss rate for ReadExReq accesses
system.l2.ReadExReq_mshr_miss_rate::total     0.993303                       # mshr miss rate for ReadExReq accesses
system.l2.ReadExReq_avg_mshr_miss_latency::.cpu.data 65681.552810                       # average ReadExReq mshr miss latency
system.l2.ReadExReq_avg_mshr_miss_latency::total 65681.552810                       # average ReadExReq mshr miss latency
system.l2.ReadCleanReq_hits::.cpu.inst             25                       # number of ReadCleanReq hits
system.l2.ReadCleanReq_hits::total                 25                       # number of ReadCleanReq hits
system.l2.ReadCleanReq_misses::.cpu.inst         3949                       # number of ReadCleanReq misses
system.l2.ReadCleanReq_misses::total             3949                       # number of ReadCleanReq misses
system.l2.ReadCleanReq_miss_latency::.cpu.inst    302303500                       # number of ReadCleanReq miss cycles
system.l2.ReadCleanReq_miss_latency::total    302303500                       # number of ReadCleanReq miss cycles
system.l2.ReadCleanReq_accesses::.cpu.inst         3974                       # number of ReadCleanReq accesses(hits+misses)
system.l2.ReadCleanReq_accesses::total           3974                       # number of ReadCleanReq accesses(hits+misses)
system.l2.ReadCleanReq_miss_rate::.cpu.inst     0.993709                       # miss rate for ReadCleanReq accesses
system.l2.ReadCleanReq_miss_rate::total      0.993709                       # miss rate for ReadCleanReq accesses
system.l2.ReadCleanReq_avg_miss_latency::.cpu.inst 76551.911876                       # average ReadCleanReq miss latency
system.l2.ReadCleanReq_avg_miss_latency::total 76551.911876                       # average ReadCleanReq miss latency
system.l2.ReadCleanReq_mshr_misses::.cpu.inst         3949                       # number of ReadCleanReq MSHR misses
system.l2.ReadCleanReq_mshr_misses::total         3949                       # number of ReadCleanReq MSHR misses
system.l2.ReadCleanReq_mshr_miss_latency::.cpu.inst    262813500                       # number of ReadCleanReq MSHR miss cycles
system.l2.ReadCleanReq_mshr_miss_latency::total    262813500                       # number of ReadCleanReq MSHR miss cycles
system.l2.ReadCleanReq_mshr_miss_rate::.cpu.inst     0.993709                       # mshr miss rate for ReadCleanReq accesses
system.l2.ReadCleanReq_mshr_miss_rate::total     0.993709                       # mshr miss rate for ReadCleanReq accesses
system.l2.ReadCleanReq_avg_mshr_miss_latency::.cpu.inst 66551.911876                       # average ReadCleanReq mshr miss latency
system.l2.ReadCleanReq_avg_mshr_miss_latency::total 66551.911876                       # average ReadCleanReq mshr miss latency
system.l2.ReadSharedReq_hits::.cpu.data          6595                       # number of ReadSharedReq hits
system.l2.ReadSharedReq_hits::total              6595                       # number of ReadSharedReq hits
system.l2.ReadSharedReq_misses::.cpu.data        73621                       # number of ReadSharedReq misses
system.l2.ReadSharedReq_misses::total           73621                       # number of ReadSharedReq misses
system.l2.ReadSharedReq_miss_latency::.cpu.data   6619303500                       # number of ReadSharedReq miss cycles
system.l2.ReadSharedReq_miss_latency::total   6619303500                       # number of ReadSharedReq miss cycles
system.l2.ReadSharedReq_accesses::.cpu.data        80216                       # number of ReadSharedReq accesses(hits+misses)
system.l2.ReadSharedReq_accesses::total         80216                       # number of ReadSharedReq accesses(hits+misses)
system.l2.ReadSharedReq_miss_rate::.cpu.data     0.917784                       # miss rate for ReadSharedReq accesses
system.l2.ReadSharedReq_miss_rate::total     0.917784                       # miss rate for ReadSharedReq accesses
system.l2.ReadSharedReq_avg_miss_latency::.cpu.data 89910.535038                       # average ReadSharedReq miss latency
system.l2.ReadSharedReq_avg_miss_latency::total 89910.535038                       # average ReadSharedReq miss latency
system.l2.ReadSharedReq_mshr_misses::.cpu.data        73621                       # number of ReadSharedReq MSHR misses
system.l2.ReadSharedReq_mshr_misses::total        73621                       # number of ReadSharedReq MSHR misses
system.l2.ReadSharedReq_mshr_miss_latency::.cpu.data   5883093500                       # number of ReadSharedReq MSHR miss cycles
system.l2.ReadSharedReq_mshr_miss_latency::total   5883093500                       # number of ReadSharedReq MSHR miss cycles
system.l2.ReadSharedReq_mshr_miss_rate::.cpu.data     0.917784                       # mshr miss rate for ReadSharedReq accesses
system.l2.ReadSharedReq_mshr_miss_rate::total     0.917784                       # mshr miss rate for ReadSharedReq accesses
system.l2.ReadSharedReq_avg_mshr_miss_latency::.cpu.data 79910.535038                       # average ReadSharedReq mshr miss latency
system.l2.ReadSharedReq_avg_mshr_miss_latency::total 79910.535038                       # average ReadSharedReq mshr miss latency
system.l2.power_state.pwrStateResidencyTicks::UNDEFINED 137351710500                       # Cumulative time (in ticks) in various power states
system.l2.tags.tagsinuse                  4089.435391                       # Cycle average of tags in use
system.l2.tags.total_refs                      358573                       # Total number of references to valid blocks.
system.l2.tags.sampled_refs                    326374                       # Sample count of references to valid blocks.
system.l2.tags.avg_refs                      1.098657                       # Average number of references to valid blocks.
system.l2.tags.warmup_cycle                     77000                       # Cycle when the warmup percentage was hit.
system.l2.tags.occ_blocks::.writebacks    1831.066076                       # Average occupied blocks per requestor
system.l2.tags.occ_blocks::.cpu.inst        35.277034                       # Average occupied blocks per requestor
system.l2.tags.occ_blocks::.cpu.data      2223.092280                       # Average occupied blocks per requestor
system.l2.tags.occ_percent::.writebacks      0.447038                       # Average percentage of cache occupancy
system.l2.tags.occ_percent::.cpu.inst        0.008613                       # Average percentage of cache occupancy
system.l2.tags.occ_percent::.cpu.data        0.542747                       # Average percentage of cache occupancy
system.l2.tags.occ_percent::total            0.998397                       # Average percentage of cache occupancy
system.l2.tags.occ_task_id_blocks::1024          4096                       # Occupied blocks per task id
system.l2.tags.age_task_id_blocks_1024::0          156                       # Occupied blocks per task id
system.l2.tags.age_task_id_blocks_1024::1         1328                       # Occupied blocks per task id
system.l2.tags.age_task_id_blocks_1024::2         2612                       # Occupied blocks per task id
system.l2.tags.occ_task_id_percent::1024            1                       # Percentage of cache occupancy per task id
system.l2.tags.tag_accesses                  24900646                       # Number of tag accesses
system.l2.tags.data_accesses                 24900646                       # Number of data accesses
system.l2.tags.power_state.pwrStateResidencyTicks::UNDEFINED 137351710500                       # Cumulative time (in ticks) in various power states
system.mem_ctrls.avgPriority_.writebacks::samples     81045.00                       # Average QoS priority value for accepted requests
system.mem_ctrls.avgPriority_.cpu.inst::samples      3949.00                       # Average QoS priority value for accepted requests
system.mem_ctrls.avgPriority_.cpu.data::samples    184207.00                       # Average QoS priority value for accepted requests
system.mem_ctrls.priorityMinLatency      0.000000018750                       # per QoS priority minimum request to response latency (s)
system.mem_ctrls.priorityMaxLatency      0.032690146750                       # per QoS priority maximum request to response latency (s)
system.mem_ctrls.numReadWriteTurnArounds         4578                       # Number of turnarounds from READ to WRITE
system.mem_ctrls.numWriteReadTurnArounds         4578                       # Number of turnarounds from WRITE to READ
system.mem_ctrls.numStayReadState              555926                       # Number of times bus staying in READ state
system.mem_ctrls.numStayWriteState              76568                       # Number of times bus staying in WRITE state
system.mem_ctrls.readReqs                      188221                       # Number of read requests accepted
system.mem_ctrls.writeReqs                     145645                       # Number of write requests accepted
system.mem_ctrls.readBursts                    188221                       # Number of controller read bursts, including those serviced by the write queue
system.mem_ctrls.writeBursts                   145645                       # Number of controller write bursts, including those merged in the write queue
system.mem_ctrls.servicedByWrQ                     65                       # Number of controller read bursts serviced by the write queue
system.mem_ctrls.mergedWrBursts                 64600                       # Number of controller write bursts merged with an existing one
system.mem_ctrls.neitherReadNorWriteReqs            0                       # Number of requests that are neither read nor write
system.mem_ctrls.avgRdQLen                       1.00                       # Average read queue length when enqueuing
system.mem_ctrls.avgWrQLen                      24.22                       # Average write queue length when enqueuing
system.mem_ctrls.numRdRetry                         0                       # Number of times read queue was full causing retry
system.mem_ctrls.numWrRetry                         0                       # Number of times write queue was full causing retry
system.mem_ctrls.readPktSize::0                     0                       # Read request sizes (log2)
system.mem_ctrls.readPktSize::1                     0                       # Read request sizes (log2)
system.mem_ctrls.readPktSize::2                     0                       # Read request sizes (log2)
system.mem_ctrls.readPktSize::3                     0                       # Read request sizes (log2)
system.mem_ctrls.readPktSize::4                     0                       # Read request sizes (log2)
system.mem_ctrls.readPktSize::5                188221                       # Read request sizes (log2)
system.mem_ctrls.writePktSize::0                    0                       # Write request sizes (log2)
system.mem_ctrls.writePktSize::1                    0                       # Write request sizes (log2)
system.mem_ctrls.writePktSize::2                    0                       # Write request sizes (log2)
system.mem_ctrls.writePktSize::3                    0                       # Write request sizes (log2)
system.mem_ctrls.writePktSize::4                    0                       # Write request sizes (log2)
system.mem_ctrls.writePktSize::5               145645                       # Write request sizes (log2)
system.mem_ctrls.rdQLenPdf::0                  188135                       # What read queue length does an incoming req see
system.mem_ctrls.rdQLenPdf::1                      21                       # What read queue length does an incoming req see
system.mem_ctrls.rdQLenPdf::2                       0                       # What read queue length does an incoming req see
system.mem_ctrls.rdQLenPdf::3                       0                       # What read queue length does an incoming req see
system.mem_ctrls.rdQLenPdf::4                       0                       # What read queue length does an incoming req see
system.mem_ctrls.rdQLenPdf::5                       0                       # What read queue length does an incoming req see
system.mem_ctrls.rdQLenPdf::6                       0                       # What read queue length does an incoming req see
system.mem_ctrls.rdQLenPdf::7                       0                       # What read queue length does an incoming req see
system.mem_ctrls.rdQLenPdf::8                       0                       # What read queue length does an incoming req see
system.mem_ctrls.rdQLenPdf::9                       0                       # What read queue length does an incoming req see
system.mem_ctrls.rdQLenPdf::10                      0                       # What read queue length does an incoming req see
system.mem_ctrls.rdQLenPdf::11                      0                       # What read queue length does an incoming req see
system.mem_ctrls.rdQLenPdf::12                      0                       # What read queue length does an incoming req see
system.mem_ctrls.rdQLenPdf::13                      0                       # What read queue length does an incoming req see
system.mem_ctrls.rdQLenPdf::14                      0                       # What read queue length does an incoming req see
system.mem_ctrls.rdQLenPdf::15                      0                       # What read queue length does an incoming req see
system.mem_ctrls.rdQLenPdf::16                      0                       # What read queue length does an incoming req see
system.mem_ctrls.rdQLenPdf::17                      0                       # What read queue length does an incoming req see
system.mem_ctrls.rdQLenPdf::18                      0                       # What read queue length does an incoming req see
system.mem_ctrls.rdQLenPdf::19                      0                       # What read queue length does an incoming req see
system.mem_ctrls.rdQLenPdf::20                      0                       # What read queue length does an incoming req see
system.mem_ctrls.rdQLenPdf::21                      0                       # What read queue length does an incoming req see
system.mem_ctrls.rdQLenPdf::22                      0                       # What read queue length does an incoming req see
system.mem_ctrls.rdQLenPdf::23                      0                       # What read queue length does an incoming req see
system.mem_ctrls.rdQLenPdf::24                      0                       # What read queue length does an incoming req see
system.mem_ctrls.rdQLenPdf::25                      0                       # What read queue length does an incoming req see
system.mem_ctrls.rdQLenPdf::26                      0                       # What read queue length does an incoming req see
system.mem_ctrls.rdQLenPdf::27                      0                       # What read queue length does an incoming req see
system.mem_ctrls.rdQLenPdf::28                      0                       # What read queue length does an incoming req see
system.mem_ctrls.rdQLenPdf::29                      0                       # What read queue length does an incoming req see
system.mem_ctrls.rdQLenPdf::30                      0                       # What read queue length does an incoming req see
system.mem_ctrls.rdQLenPdf::31                      0                       # What read queue length does an incoming req see
system.mem_ctrls.wrQLenPdf::0                       1                       # What write queue length does an incoming req see
system.mem_ctrls.wrQLenPdf::1                       1                       # What write queue length does an incoming req see
system.mem_ctrls.wrQLenPdf::2                       1                       # What write queue length does an incoming req see
system.mem_ctrls.wrQLenPdf::3                       1                       # What write queue length does an incoming req see
system.mem_ctrls.wrQLenPdf::4                       1                       # What write queue length does an incoming req see
system.mem_ctrls.wrQLenPdf::5                       1                       # What write queue length does an incoming req see
system.mem_ctrls.wrQLenPdf::6                       1                       # What write queue length does an incoming req see
system.mem_ctrls.wrQLenPdf::7                       1                       # What write queue length does an incoming req see
system.mem_ctrls.wrQLenPdf::8                       1                       # What write queue length does an incoming req see
system.mem_ctrls.wrQLenPdf::9                       1                       # What write queue length does an incoming req see
system.mem_ctrls.wrQLenPdf::10                      1                       # What write queue length does an incoming req see
system.mem_ctrls.wrQLenPdf::11                      1                       # What write queue length does an incoming req see
system.mem_ctrls.wrQLenPdf::12                      1                       # What write queue length does an incoming req see
system.mem_ctrls.wrQLenPdf::13                      1                       # What write queue length does an incoming req see
system.mem_ctrls.wrQLenPdf::14                      1                       # What write queue length does an incoming req see
system.mem_ctrls.wrQLenPdf::15                   3833                       # What write queue length does an incoming req see
system.mem_ctrls.wrQLenPdf::16                   3854                       # What write queue length does an incoming req see
system.mem_ctrls.wrQLenPdf::17                   4550                       # What write queue length does an incoming req see
system.mem_ctrls.wrQLenPdf::18                   4580                       # What write queue length does an incoming req see
system.mem_ctrls.wrQLenPdf::19                   4581                       # What write queue length does an incoming req see
system.mem_ctrls.wrQLenPdf::20                   4580                       # What write queue length does an incoming req see
system.mem_ctrls.wrQLenPdf::21                   4579                       # What write queue length does an incoming req see
system.mem_ctrls.wrQLenPdf::22                   4579                       # What write queue length does an incoming req see
system.mem_ctrls.wrQLenPdf::23                   4583                       # What write queue length does an incoming req see
system.mem_ctrls.wrQLenPdf::24                   4579                       # What write queue length does an incoming req see
system.mem_ctrls.wrQLenPdf::25                   4679                       # What write queue length does an incoming req see
system.mem_ctrls.wrQLenPdf::26                   4584                       # What write queue length does an incoming req see
system.mem_ctrls.wrQLenPdf::27                   4578                       # What write queue length does an incoming req see
system.mem_ctrls.wrQLenPdf::28                   4578                       # What write queue length does an incoming req see
system.mem_ctrls.wrQLenPdf::29                   4578                       # What write queue length does an incoming req see
system.mem_ctrls.wrQLenPdf::30                   4578                       # What write queue length does an incoming req see
system.mem_ctrls.wrQLenPdf::31                   4578                       # What write queue length does an incoming req see
system.mem_ctrls.wrQLenPdf::32                   4578                       # What write queue length does an incoming req see
system.mem_ctrls.wrQLenPdf::33                      1                       # What write queue length does an incoming req see
system.mem_ctrls.wrQLenPdf::34                      0                       # What write queue length does an incoming req see
system.mem_ctrls.wrQLenPdf::35                      0                       # What write queue length does an incoming req see
system.mem_ctrls.wrQLenPdf::36                      0                       # What write queue length does an incoming req see
system.mem_ctrls.wrQLenPdf::37                      0                       # What write queue length does an incoming req see
system.mem_ctrls.wrQLenPdf::38                      0                       # What write queue length does an incoming req see
system.mem_ctrls.wrQLenPdf::39                      0                       # What write queue length does an incoming req see
system.mem_ctrls.wrQLenPdf::40                      0                       # What write queue length does an incoming req see
system.mem_ctrls.wrQLenPdf::41                      0                       # What write queue length does an incoming req see
system.mem_ctrls.wrQLenPdf::42                      0                       # What write queue length does an incoming req see
system.mem_ctrls.wrQLenPdf::43                      0                       # What write queue length does an incoming req see
system.mem_ctrls.wrQLenPdf::44                      0                       # What write queue length does an incoming req see
system.mem_ctrls.wrQLenPdf::45                      0                       # What write queue length does an incoming req see
system.mem_ctrls.wrQLenPdf::46                      0                       # What write queue length does an incoming req see
system.mem_ctrls.wrQLenPdf::47                      0                       # What write queue length does an incoming req see
system.mem_ctrls.wrQLenPdf::48                      0                       # What write queue length does an incoming req see
system.mem_ctrls.wrQLenPdf::49                      0                       # What write queue length does an incoming req see
system.mem_ctrls.wrQLenPdf::50                      0                       # What write queue length does an incoming req see
system.mem_ctrls.wrQLenPdf::51                      0                       # What write queue length does an incoming req see
system.mem_ctrls.wrQLenPdf::52                      0                       # What write queue length does an incoming req see
system.mem_ctrls.wrQLenPdf::53                      0                       # What write queue length does an incoming req see
system.mem_ctrls.wrQLenPdf::54                      0                       # What write queue length does an incoming req see
system.mem_ctrls.wrQLenPdf::55                      0                       # What write queue length does an incoming req see
system.mem_ctrls.wrQLenPdf::56                      0                       # What write queue length does an incoming req see
system.mem_ctrls.wrQLenPdf::57                      0                       # What write queue length does an incoming req see
system.mem_ctrls.wrQLenPdf::58                      0                       # What write queue length does an incoming req see
system.mem_ctrls.wrQLenPdf::59                      0                       # What write queue length does an incoming req see
system.mem_ctrls.wrQLenPdf::60                      0                       # What write queue length does an incoming req see
system.mem_ctrls.wrQLenPdf::61                      0                       # What write queue length does an incoming req see
system.mem_ctrls.wrQLenPdf::62                      0                       # What write queue length does an incoming req see
system.mem_ctrls.wrQLenPdf::63                      0                       # What write queue length does an incoming req see
system.mem_ctrls.rdPerTurnAround::samples         4578                       # Reads before turning the bus around for writes
system.mem_ctrls.rdPerTurnAround::mean      41.098515                       # Reads before turning the bus around for writes
system.mem_ctrls.rdPerTurnAround::gmean     35.435892                       # Reads before turning the bus around for writes
system.mem_ctrls.rdPerTurnAround::stdev    120.773084                       # Reads before turning the bus around for writes
system.mem_ctrls.rdPerTurnAround::0-255          4567     99.76%     99.76% # Reads before turning the bus around for writes
system.mem_ctrls.rdPerTurnAround::256-511            5      0.11%     99.87% # Reads before turning the bus around for writes
system.mem_ctrls.rdPerTurnAround::512-767            4      0.09%     99.96% # Reads before turning the bus around for writes
system.mem_ctrls.rdPerTurnAround::5120-5375            1      0.02%     99.98% # Reads before turning the bus around for writes
system.mem_ctrls.rdPerTurnAround::6144-6399            1      0.02%    100.00% # Reads before turning the bus around for writes
system.mem_ctrls.rdPerTurnAround::total          4578                       # Reads before turning the bus around for writes
system.mem_ctrls.wrPerTurnAround::samples         4578                       # Writes before turning the bus around for reads
system.mem_ctrls.wrPerTurnAround::mean      17.698121                       # Writes before turning the bus around for reads
system.mem_ctrls.wrPerTurnAround::gmean     17.681327                       # Writes before turning the bus around for reads
system.mem_ctrls.wrPerTurnAround::stdev      0.752071                       # Writes before turning the bus around for reads
system.mem_ctrls.wrPerTurnAround::16              726     15.86%     15.86% # Writes before turning the bus around for reads
system.mem_ctrls.wrPerTurnAround::17               16      0.35%     16.21% # Writes before turning the bus around for reads
system.mem_ctrls.wrPerTurnAround::18             3750     81.91%     98.12% # Writes before turning the bus around for reads
system.mem_ctrls.wrPerTurnAround::19               86      1.88%    100.00% # Writes before turning the bus around for reads
system.mem_ctrls.wrPerTurnAround::total          4578                       # Writes before turning the bus around for reads
system.mem_ctrls.bytesReadWrQ                    4160                       # Total number of bytes read from write queue
system.mem_ctrls.bytesReadSys                 6023072                       # Total read bytes from the system interface side
system.mem_ctrls.bytesWrittenSys              4660640                       # Total written bytes from the system interface side
system.mem_ctrls.avgRdBWSys                     43.85                       # Average system read bandwidth in MiByte/s
system.mem_ctrls.avgWrBWSys                     33.93                       # Average system write bandwidth in MiByte/s
system.mem_ctrls.totGap                  137351695500                       # Total gap between requests
system.mem_ctrls.avgGap                     411397.67                       # Average gap between requests
system.mem_ctrls.requestorReadBytes::.cpu.inst       126368                       # Per-requestor bytes read from memory
system.mem_ctrls.requestorReadBytes::.cpu.data      5894624                       # Per-requestor bytes read from memory
[...]
system.mem_ctrls.dram.bw_total::.cpu.data     42931420                       # Total bandwidth to/from this memory (bytes/s)
system.mem_ctrls.dram.bw_total::total        77783611                       # Total bandwidth to/from this memory (bytes/s)
system.mem_ctrls.dram.readBursts               188156                       # Number of DRAM read bursts
system.mem_ctrls.dram.writeBursts               81022                       # Number of DRAM write bursts
system.mem_ctrls.dram.perBankRdBursts::0        12384                       # Per bank write bursts
system.mem_ctrls.dram.perBankRdBursts::1        12265                       # Per bank write bursts
system.mem_ctrls.dram.perBankRdBursts::2        11859                       # Per bank write bursts
system.mem_ctrls.dram.perBankRdBursts::3        12611                       # Per bank write bursts
system.mem_ctrls.dram.perBankRdBursts::4        11527                       # Per bank write bursts
system.mem_ctrls.dram.perBankRdBursts::5        11355                       # Per bank write bursts
system.mem_ctrls.dram.perBankRdBursts::6        11380                       # Per bank write bursts
system.mem_ctrls.dram.perBankRdBursts::7        11738                       # Per bank write bursts
system.mem_ctrls.dram.perBankRdBursts::8        11766                       # Per bank write bursts
system.mem_ctrls.dram.perBankRdBursts::9        11606                       # Per bank write bursts
system.mem_ctrls.dram.perBankRdBursts::10        12183                       # Per bank write bursts
system.mem_ctrls.dram.perBankRdBursts::11        11968                       # Per bank write bursts
system.mem_ctrls.dram.perBankRdBursts::12        11295                       # Per bank write bursts
system.mem_ctrls.dram.perBankRdBursts::13        11018                       # Per bank write bursts
system.mem_ctrls.dram.perBankRdBursts::14        11364                       # Per bank write bursts
system.mem_ctrls.dram.perBankRdBursts::15        11837                       # Per bank write bursts
system.mem_ctrls.dram.perBankWrBursts::0         5236                       # Per bank write bursts
system.mem_ctrls.dram.perBankWrBursts::1         5103                       # Per bank write bursts
system.mem_ctrls.dram.perBankWrBursts::2         5077                       # Per bank write bursts
system.mem_ctrls.dram.perBankWrBursts::3         5286                       # Per bank write bursts
system.mem_ctrls.dram.perBankWrBursts::4         4917                       # Per bank write bursts
system.mem_ctrls.dram.perBankWrBursts::5         4999                       # Per bank write bursts
system.mem_ctrls.dram.perBankWrBursts::6         5311                       # Per bank write bursts
system.mem_ctrls.dram.perBankWrBursts::7         4883                       # Per bank write bursts
system.mem_ctrls.dram.perBankWrBursts::8         5295                       # Per bank write bursts
system.mem_ctrls.dram.perBankWrBursts::9         4912                       # Per bank write bursts
system.mem_ctrls.dram.perBankWrBursts::10         5185                       # Per bank write bursts
system.mem_ctrls.dram.perBankWrBursts::11         5333                       # Per bank write bursts
system.mem_ctrls.dram.perBankWrBursts::12         4982                       # Per bank write bursts
system.mem_ctrls.dram.perBankWrBursts::13         4685                       # Per bank write bursts
system.mem_ctrls.dram.perBankWrBursts::14         4933                       # Per bank write bursts
system.mem_ctrls.dram.perBankWrBursts::15         4885                       # Per bank write bursts
system.mem_ctrls.dram.totQLat              2189950750                       # Total ticks spent queuing
system.mem_ctrls.dram.totBusLat             940780000                       # Total ticks spent in databus transfers
system.mem_ctrls.dram.totMemAccLat         5717875750                       # Total ticks spent from burst creation until serviced by the DRAM
system.mem_ctrls.dram.avgQLat                11639.02                       # Average queueing delay per DRAM burst
system.mem_ctrls.dram.avgBusLat               5000.00                       # Average bus latency per DRAM burst
system.mem_ctrls.dram.avgMemAccLat           30389.02                       # Average memory access latency per DRAM burst
system.mem_ctrls.dram.readRowHits              121142                       # Number of row buffer hits during reads
system.mem_ctrls.dram.writeRowHits              70716                       # Number of row buffer hits during writes
system.mem_ctrls.dram.readRowHitRate            64.38                       # Row buffer hit rate for reads
system.mem_ctrls.dram.writeRowHitRate           87.28                       # Row buffer hit rate for writes
system.mem_ctrls.dram.bytesPerActivate::samples        77313                       # Bytes accessed per row activation
system.mem_ctrls.dram.bytesPerActivate::mean   222.805065                       # Bytes accessed per row activation
system.mem_ctrls.dram.bytesPerActivate::gmean   126.156039                       # Bytes accessed per row activation
system.mem_ctrls.dram.bytesPerActivate::stdev   283.026528                       # Bytes accessed per row activation
system.mem_ctrls.dram.bytesPerActivate::0-127        47752     61.76%     61.76% # Bytes accessed per row activation
system.mem_ctrls.dram.bytesPerActivate::128-255         6586      8.52%     70.28% # Bytes accessed per row activation
system.mem_ctrls.dram.bytesPerActivate::256-383        10147     13.12%     83.41% # Bytes accessed per row activation
system.mem_ctrls.dram.bytesPerActivate::384-511         1559      2.02%     85.42% # Bytes accessed per row activation
system.mem_ctrls.dram.bytesPerActivate::512-639         1397      1.81%     87.23% # Bytes accessed per row activation
system.mem_ctrls.dram.bytesPerActivate::640-767         2551      3.30%     90.53% # Bytes accessed per row activation
system.mem_ctrls.dram.bytesPerActivate::768-895         1039      1.34%     91.87% # Bytes accessed per row activation
system.mem_ctrls.dram.bytesPerActivate::896-1023         1229      1.59%     93.46% # Bytes accessed per row activation
system.mem_ctrls.dram.bytesPerActivate::1024-1151         5053      6.54%    100.00% # Bytes accessed per row activation
system.mem_ctrls.dram.bytesPerActivate::total        77313                       # Bytes accessed per row activation
system.mem_ctrls.dram.bytesRead              12041984                       # Total number of bytes read from DRAM
system.mem_ctrls.dram.bytesWritten            5185408                       # Total number of bytes written to DRAM
system.mem_ctrls.dram.avgRdBW               87.672618                       # Average DRAM read bandwidth in MiBytes/s
system.mem_ctrls.dram.avgWrBW               37.752773                       # Average DRAM write bandwidth in MiBytes/s
system.mem_ctrls.dram.peakBW                 12800.00                       # Theoretical peak bandwidth in MiByte/s
system.mem_ctrls.dram.busUtil                    0.98                       # Data bus utilization in percentage
system.mem_ctrls.dram.busUtilRead                0.68                       # Data bus utilization in percentage for reads
system.mem_ctrls.dram.busUtilWrite               0.29                       # Data bus utilization in percentage for writes
system.mem_ctrls.dram.pageHitRate               71.28                       # Row buffer hit rate, read and write combined
system.mem_ctrls.dram.power_state.pwrStateResidencyTicks::UNDEFINED 137351710500                       # Cumulative time (in ticks) in various power states
system.mem_ctrls.dram.rank0.actEnergy       284764620                       # Energy for activate commands per rank (pJ)
system.mem_ctrls.dram.rank0.preEnergy       151348395                       # Energy for precharge commands per rank (pJ)
system.mem_ctrls.dram.rank0.readEnergy      679149660                       # Energy for read commands per rank (pJ)
system.mem_ctrls.dram.rank0.writeEnergy     213038640                       # Energy for write commands per rank (pJ)
system.mem_ctrls.dram.rank0.refreshEnergy 10842249600.000002                       # Energy for refresh commands per rank (pJ)
system.mem_ctrls.dram.rank0.actBackEnergy  24288523650                       # Energy for active background per rank (pJ)
system.mem_ctrls.dram.rank0.preBackEnergy  32289563520                       # Energy for precharge background per rank (pJ)
system.mem_ctrls.dram.rank0.actPowerDownEnergy            0                       # Energy for active power-down per rank (pJ)
system.mem_ctrls.dram.rank0.prePowerDownEnergy            0                       # Energy for precharge power-down per rank (pJ)
system.mem_ctrls.dram.rank0.selfRefreshEnergy            0                       # Energy for self refresh per rank (pJ)
system.mem_ctrls.dram.rank0.totalEnergy   68748638085                       # Total energy per rank (pJ)
system.mem_ctrls.dram.rank0.averagePower   500.529901                       # Core power per rank (mW)
system.mem_ctrls.dram.rank0.totalIdleTime            0                       # Total Idle time Per DRAM Rank
system.mem_ctrls.dram.rank0.pwrStateTime::IDLE  83570496000                       # Time in different power states
system.mem_ctrls.dram.rank0.pwrStateTime::REF   4586400000                       # Time in different power states
system.mem_ctrls.dram.rank0.pwrStateTime::SREF            0                       # Time in different power states
system.mem_ctrls.dram.rank0.pwrStateTime::PRE_PDN            0                       # Time in different power states
system.mem_ctrls.dram.rank0.pwrStateTime::ACT  49194814500                       # Time in different power states
system.mem_ctrls.dram.rank0.pwrStateTime::ACT_PDN            0                       # Time in different power states
system.mem_ctrls.dram.rank1.actEnergy       267300180                       # Energy for activate commands per rank (pJ)
system.mem_ctrls.dram.rank1.preEnergy       142054440                       # Energy for precharge commands per rank (pJ)
system.mem_ctrls.dram.rank1.readEnergy      664284180                       # Energy for read commands per rank (pJ)
system.mem_ctrls.dram.rank1.writeEnergy     209896200                       # Energy for write commands per rank (pJ)
system.mem_ctrls.dram.rank1.refreshEnergy 10842249600.000002                       # Energy for refresh commands per rank (pJ)
system.mem_ctrls.dram.rank1.actBackEnergy  24207967830                       # Energy for active background per rank (pJ)
system.mem_ctrls.dram.rank1.preBackEnergy  32357400000                       # Energy for precharge background per rank (pJ)
system.mem_ctrls.dram.rank1.actPowerDownEnergy            0                       # Energy for active power-down per rank (pJ)
system.mem_ctrls.dram.rank1.prePowerDownEnergy            0                       # Energy for precharge power-down per rank (pJ)
system.mem_ctrls.dram.rank1.selfRefreshEnergy            0                       # Energy for self refresh per rank (pJ)
system.mem_ctrls.dram.rank1.totalEnergy   68691152430                       # Total energy per rank (pJ)
system.mem_ctrls.dram.rank1.averagePower   500.111372                       # Core power per rank (mW)
system.mem_ctrls.dram.rank1.totalIdleTime            0                       # Total Idle time Per DRAM Rank
system.mem_ctrls.dram.rank1.pwrStateTime::IDLE  83700066500                       # Time in different power states
system.mem_ctrls.dram.rank1.pwrStateTime::REF   4586400000                       # Time in different power states
system.mem_ctrls.dram.rank1.pwrStateTime::SREF            0                       # Time in different power states
system.mem_ctrls.dram.rank1.pwrStateTime::PRE_PDN            0                       # Time in different power states
system.mem_ctrls.dram.rank1.pwrStateTime::ACT  49065244000                       # Time in different power states
system.mem_ctrls.dram.rank1.pwrStateTime::ACT_PDN            0                       # Time in different power states
system.mem_ctrls.power_state.pwrStateResidencyTicks::UNDEFINED 137351710500                       # Cumulative time (in ticks) in various power states
system.membus.trans_dist::ReadResp              77570                       # Transaction distribution
system.membus.trans_dist::WritebackDirty       145645                       # Transaction distribution
system.membus.trans_dist::CleanEvict            33415                       # Transaction distribution
system.membus.trans_dist::ReadExReq            110651                       # Transaction distribution
system.membus.trans_dist::ReadExResp           110651                       # Transaction distribution
system.membus.trans_dist::ReadSharedReq         77570                       # Transaction distribution
system.membus.pkt_count_system.l2.mem_side_port::system.mem_ctrls.port       555502                       # Packet count per connected requestor and responder (bytes)
system.membus.pkt_count_system.l2.mem_side_port::total       555502                       # Packet count per connected requestor and responder (bytes)
system.membus.pkt_count::total                 555502                       # Packet count per connected requestor and responder (bytes)
system.membus.pkt_size_system.l2.mem_side_port::system.mem_ctrls.port     10683712                       # Cumulative packet size per connected requestor and responder (bytes)
system.membus.pkt_size_system.l2.mem_side_port::total     10683712                       # Cumulative packet size per connected requestor and responder (bytes)
system.membus.pkt_size::total                10683712                       # Cumulative packet size per connected requestor and responder (bytes)
system.membus.snoops                                0                       # Total snoops (count)
system.membus.snoopTraffic                          0                       # Total snoop traffic (bytes)
system.membus.snoop_fanout::samples            188221                       # Request fanout histogram
system.membus.snoop_fanout::mean                    0                       # Request fanout histogram
system.membus.snoop_fanout::stdev                   0                       # Request fanout histogram
system.membus.snoop_fanout::underflows              0      0.00%      0.00% # Request fanout histogram
system.membus.snoop_fanout::0                  188221    100.00%    100.00% # Request fanout histogram
system.membus.snoop_fanout::1                       0      0.00%    100.00% # Request fanout histogram
system.membus.snoop_fanout::overflows               0      0.00%    100.00% # Request fanout histogram
system.membus.snoop_fanout::min_value               0                       # Request fanout histogram
system.membus.snoop_fanout::max_value               0                       # Request fanout histogram
system.membus.snoop_fanout::total              188221                       # Request fanout histogram
system.membus.power_state.pwrStateResidencyTicks::UNDEFINED 137351710500                       # Cumulative time (in ticks) in various power states
system.membus.reqLayer2.occupancy           658611000                       # Layer occupancy (ticks)
system.membus.reqLayer2.utilization               0.5                       # Layer utilization (%)
system.membus.respLayer1.occupancy          637989250                       # Layer occupancy (ticks)
system.membus.respLayer1.utilization              0.5                       # Layer utilization (%)
system.tol2bus.trans_dist::ReadResp             84190                       # Transaction distribution
system.tol2bus.trans_dist::WritebackDirty       299401                       # Transaction distribution
system.tol2bus.trans_dist::WritebackClean          869                       # Transaction distribution
system.tol2bus.trans_dist::CleanEvict          210394                       # Transaction distribution
system.tol2bus.trans_dist::ReadExReq           111397                       # Transaction distribution
system.tol2bus.trans_dist::ReadExResp          111397                       # Transaction distribution
system.tol2bus.trans_dist::ReadCleanReq          3974                       # Transaction distribution
system.tol2bus.trans_dist::ReadSharedReq        80216                       # Transaction distribution
system.tol2bus.pkt_count_system.cpu.icache.mem_side_port::system.l2.cpu_side_port         8817                       # Packet count per connected requestor and responder (bytes)
system.tol2bus.pkt_count_system.cpu.dcache.mem_side_port::system.l2.cpu_side_port       570743                       # Packet count per connected requestor and responder (bytes)
system.tol2bus.pkt_count::total                579560                       # Packet count per connected requestor and responder (bytes)
system.tol2bus.pkt_size_system.cpu.icache.mem_side_port::system.l2.cpu_side_port       154976                       # Cumulative packet size per connected requestor and responder (bytes)
system.tol2bus.pkt_size_system.cpu.dcache.mem_side_port::system.l2.cpu_side_port     11051808                       # Cumulative packet size per connected requestor and responder (bytes)
system.tol2bus.pkt_size::total               11206784                       # Cumulative packet size per connected requestor and responder (bytes)
system.tol2bus.snoops                          322278                       # Total snoops (count)
system.tol2bus.snoopTraffic                   4660640                       # Total snoop traffic (bytes)
system.tol2bus.snoop_fanout::samples           517865                       # Request fanout histogram
system.tol2bus.snoop_fanout::mean            0.325602                       # Request fanout histogram
system.tol2bus.snoop_fanout::stdev           0.468600                       # Request fanout histogram
system.tol2bus.snoop_fanout::underflows             0      0.00%      0.00% # Request fanout histogram
system.tol2bus.snoop_fanout::0                 349247     67.44%     67.44% # Request fanout histogram
system.tol2bus.snoop_fanout::1                 168618     32.56%    100.00% # Request fanout histogram
system.tol2bus.snoop_fanout::2                      0      0.00%    100.00% # Request fanout histogram
system.tol2bus.snoop_fanout::3                      0      0.00%    100.00% # Request fanout histogram
system.tol2bus.snoop_fanout::4                      0      0.00%    100.00% # Request fanout histogram
system.tol2bus.snoop_fanout::overflows              0      0.00%    100.00% # Request fanout histogram
system.tol2bus.snoop_fanout::min_value              0                       # Request fanout histogram
system.tol2bus.snoop_fanout::max_value              1                       # Request fanout histogram
system.tol2bus.snoop_fanout::total             517865                       # Request fanout histogram
system.tol2bus.power_state.pwrStateResidencyTicks::UNDEFINED 137351710500                       # Cumulative time (in ticks) in various power states
system.tol2bus.reqLayer0.occupancy          269299000                       # Layer occupancy (ticks)
system.tol2bus.reqLayer0.utilization              0.2                       # Layer utilization (%)
system.tol2bus.respLayer0.occupancy           3974000                       # Layer occupancy (ticks)
system.tol2bus.respLayer0.utilization             0.0                       # Layer utilization (%)
system.tol2bus.respLayer1.occupancy         191613000                       # Layer occupancy (ticks)
system.tol2bus.respLayer1.utilization             0.1                       # Layer utilization (%)
system.voltage_domain.voltage                       1                       # Voltage in Volts

---------- End Simulation Statistics   ----------
