
---------- Begin Simulation Statistics ----------
final_tick                               137362939500                       # Number of ticks from beginning of simulation (restored from checkpoints and never reset)
host_inst_rate                                 479964                       # Simulator instruction rate (inst/s)
host_mem_usage                                 712632                       # Number of bytes of host memory used
host_op_rate                                   734221                       # Simulator op (including micro ops) rate (op/s)
host_seconds                                   132.17                       # Real time elapsed on the host
host_tick_rate                             1039287485                       # Simulator tick rate (ticks/s)
sim_freq                                 1000000000000                       # Frequency of simulated ticks
sim_insts                                    63436878                       # Number of instructions simulated
sim_ops                                      97042210                       # Number of ops (including micro ops) simulated
sim_seconds                                  0.137363                       # Number of seconds simulated
sim_ticks                                137362939500                       # Number of ticks simulated
system.cpu.Branches                           7714393                       # Number of branches fetched
system.cpu.committedInsts                    63436878                       # Number of instructions committed
system.cpu.committedOps                      97042210                       # Number of ops (including micro ops) committed
system.cpu.idle_fraction                     0.000000                       # Percentage of idle cycles
system.cpu.not_idle_fraction                 1.000000                       # Percentage of non-idle cycles
system.cpu.numCycles                        274725879                       # number of cpu cycles simulated
system.cpu.numWorkItemsCompleted                    0                       # number of work items this cpu completed
system.cpu.numWorkItemsStarted                      0                       # number of work items this cpu started
system.cpu.num_busy_cycles               274725878.998000                       # Number of busy cycles
system.cpu.num_cc_register_reads             29902185                       # number of times the CC registers were read
system.cpu.num_cc_register_writes            27168373                       # number of times the CC registers were written
system.cpu.num_conditional_control_insts      4234783                       # number of instructions that are conditional controls
system.cpu.num_fp_alu_accesses                  85206                       # Number of float alu accesses
system.cpu.num_fp_insts                         85206                       # number of float instructions
system.cpu.num_fp_register_reads               119500                       # number of times the floating registers were read
system.cpu.num_fp_register_writes               63458                       # number of times the floating registers were written
system.cpu.num_func_calls                     1924148                       # number of times a function call or return occured
system.cpu.num_idle_cycles                   0.002000                       # Number of idle cycles
system.cpu.num_int_alu_accesses              95088667                       # Number of integer alu accesses
system.cpu.num_int_insts                     95088667                       # number of integer instructions
system.cpu.num_int_register_reads           214307208                       # number of times the integer registers were read
system.cpu.num_int_register_writes           77409627                       # number of times the integer registers were written
system.cpu.num_load_insts                    26073751                       # Number of load instructions
system.cpu.num_mem_refs                      36099173                       # number of memory refs
system.cpu.num_store_insts                   10025422                       # Number of store instructions
system.cpu.num_vec_alu_accesses                     0                       # Number of vector alu accesses
system.cpu.num_vec_insts                            0                       # number of vector instructions
system.cpu.num_vec_register_reads                   0                       # number of times the vector registers were read
system.cpu.num_vec_register_writes                  0                       # number of times the vector registers were written
system.cpu.op_class::No_OpClass                976243      1.01%      1.01% # Class of executed instruction
system.cpu.op_class::IntAlu                  59879192     61.70%     62.71% # Class of executed instruction
system.cpu.op_class::IntMult                       74      0.00%     62.71% # Class of executed instruction
system.cpu.op_class::IntDiv                     36240      0.04%     62.75% # Class of executed instruction
system.cpu.op_class::FloatAdd                    5590      0.01%     62.75% # Class of executed instruction
system.cpu.op_class::FloatCmp                       0      0.00%     62.75% # Class of executed instruction
system.cpu.op_class::FloatCvt                    1232      0.00%     62.75% # Class of executed instruction
system.cpu.op_class::FloatMult                      0      0.00%     62.75% # Class of executed instruction
system.cpu.op_class::FloatMultAcc                   0      0.00%     62.75% # Class of executed instruction
system.cpu.op_class::FloatDiv                       0      0.00%     62.75% # Class of executed instruction
system.cpu.op_class::FloatMisc                      0      0.00%     62.75% # Class of executed instruction
system.cpu.op_class::FloatSqrt                      0      0.00%     62.75% # Class of executed instruction
system.cpu.op_class::SimdAdd                     6716      0.01%     62.76% # Class of executed instruction
system.cpu.op_class::SimdAddAcc                     0      0.00%     62.76% # Class of executed instruction
system.cpu.op_class::SimdAlu                    12162      0.01%     62.77% # Class of executed instruction
system.cpu.op_class::SimdCmp                        6      0.00%     62.77% # Class of executed instruction
system.cpu.op_class::SimdCvt                    13804      0.01%     62.79% # Class of executed instruction
system.cpu.op_class::SimdMisc                   12230      0.01%     62.80% # Class of executed instruction
system.cpu.op_class::SimdMult                       0      0.00%     62.80% # Class of executed instruction
system.cpu.op_class::SimdMultAcc                    0      0.00%     62.80% # Class of executed instruction
system.cpu.op_class::SimdShift                    436      0.00%     62.80% # Class of executed instruction
system.cpu.op_class::SimdShiftAcc                   0      0.00%     62.80% # Class of executed instruction
system.cpu.op_class::SimdDiv                        0      0.00%     62.80% # Class of executed instruction
system.cpu.op_class::SimdSqrt                       0      0.00%     62.80% # Class of executed instruction
system.cpu.op_class::SimdFloatAdd                  10      0.00%     62.80% # Class of executed instruction
system.cpu.op_class::SimdFloatAlu                   0      0.00%     62.80% # Class of executed instruction
system.cpu.op_class::SimdFloatCmp                   0      0.00%     62.80% # Class of executed instruction
system.cpu.op_class::SimdFloatCvt                  30      0.00%     62.80% # Class of executed instruction
system.cpu.op_class::SimdFloatDiv                   0      0.00%     62.80% # Class of executed instruction
system.cpu.op_class::SimdFloatMisc                  0      0.00%     62.80% # Class of executed instruction
system.cpu.op_class::SimdFloatMult                 12      0.00%     62.80% # Class of executed instruction
system.cpu.op_class::SimdFloatMultAcc               0      0.00%     62.80% # Class of executed instruction
system.cpu.op_class::SimdFloatSqrt                  0      0.00%     62.80% # Class of executed instruction
system.cpu.op_class::SimdReduceAdd                  0      0.00%     62.80% # Class of executed instruction
system.cpu.op_class::SimdReduceAlu                  0      0.00%     62.80% # Class of executed instruction
system.cpu.op_class::SimdReduceCmp                  0      0.00%     62.80% # Class of executed instruction
system.cpu.op_class::SimdFloatReduceAdd             0      0.00%     62.80% # Class of executed instruction
system.cpu.op_class::SimdFloatReduceCmp             0      0.00%     62.80% # Class of executed instruction
system.cpu.op_class::SimdAes                        0      0.00%     62.80% # Class of executed instruction
system.cpu.op_class::SimdAesMix                     0      0.00%     62.80% # Class of executed instruction
system.cpu.op_class::SimdSha1Hash                   0      0.00%     62.80% # Class of executed instruction
system.cpu.op_class::SimdSha1Hash2                  0      0.00%     62.80% # Class of executed instruction
system.cpu.op_class::SimdSha256Hash                 0      0.00%     62.80% # Class of executed instruction
system.cpu.op_class::SimdSha256Hash2                0      0.00%     62.80% # Class of executed instruction
system.cpu.op_class::SimdShaSigma2                  0      0.00%     62.80% # Class of executed instruction
system.cpu.op_class::SimdShaSigma3                  0      0.00%     62.80% # Class of executed instruction
system.cpu.op_class::SimdPredAlu                    0      0.00%     62.80% # Class of executed instruction
system.cpu.op_class::MemRead                 26056914     26.85%     89.65% # Class of executed instruction
system.cpu.op_class::MemWrite                10011984     10.32%     99.97% # Class of executed instruction
system.cpu.op_class::FloatMemRead               16837      0.02%     99.99% # Class of executed instruction
system.cpu.op_class::FloatMemWrite              13438      0.01%    100.00% # Class of executed instruction
system.cpu.op_class::IprAccess                      0      0.00%    100.00% # Class of executed instruction
system.cpu.op_class::InstPrefetch                   0      0.00%    100.00% # Class of executed instruction
system.cpu.op_class::total                   97043150                       # Class of executed instruction
system.cpu.workload.numSyscalls                   100                       # Number of system calls
system.membus.snoop_filter.hit_multi_requests            0                       # Number of requests hitting in the snoop filter with multiple (>1) holders of the requested data.
system.membus.snoop_filter.hit_multi_snoops            0                       # Number of snoops hitting in the snoop filter with multiple (>1) holders of the requested data.
system.membus.snoop_filter.hit_single_requests       179196                       # Number of requests hitting in the snoop filter with a single holder of the requested data.
system.membus.snoop_filter.hit_single_snoops            0                       # Number of snoops hitting in the snoop filter with a single holder of the requested data.
system.membus.snoop_filter.tot_requests        367539                       # Total number of requests made to the snoop filter.
system.membus.snoop_filter.tot_snoops               0                       # Total number of snoops made to the snoop filter.
system.tol2bus.snoop_filter.hit_multi_requests            0                       # Number of requests hitting in the snoop filter with multiple (>1) holders of the requested data.
system.tol2bus.snoop_filter.hit_multi_snoops            0                       # Number of snoops hitting in the snoop filter with multiple (>1) holders of the requested data.
system.tol2bus.snoop_filter.hit_single_requests       188386                       # Number of requests hitting in the snoop filter with a single holder of the requested data.
system.tol2bus.snoop_filter.hit_single_snoops       168138                       # Number of snoops hitting in the snoop filter with a single holder of the requested data.
system.tol2bus.snoop_filter.tot_requests       383973                       # Total number of requests made to the snoop filter.
system.tol2bus.snoop_filter.tot_snoops         168138                       # Total number of snoops made to the snoop filter.
system.clk_domain.clock                          1000                       # Clock period in ticks
system.cpu.dcache.demand_hits::.cpu.data     35939861                       # number of demand (read+write) hits
system.cpu.dcache.demand_hits::total         35939861                       # number of demand (read+write) hits
system.cpu.dcache.overall_hits::.cpu.data     35939861                       # number of overall hits
system.cpu.dcache.overall_hits::total        35939861                       # number of overall hits
system.cpu.dcache.demand_misses::.cpu.data       191613                       # number of demand (read+write) misses
system.cpu.dcache.demand_misses::total         191613                       # number of demand (read+write) misses
system.cpu.dcache.overall_misses::.cpu.data       191613                       # number of overall misses
system.cpu.dcache.overall_misses::total        191613                       # number of overall misses
system.cpu.dcache.demand_miss_latency::.cpu.data  15559914500                       # number of demand (read+write) miss cycles
system.cpu.dcache.demand_miss_latency::total  15559914500                       # number of demand (read+write) miss cycles
system.cpu.dcache.overall_miss_latency::.cpu.data  15559914500                       # number of overall miss cycles
system.cpu.dcache.overall_miss_latency::total  15559914500                       # number of overall miss cycles
system.cpu.dcache.demand_accesses::.cpu.data     36131474                       # number of demand (read+write) accesses
system.cpu.dcache.demand_accesses::total     36131474                       # number of demand (read+write) accesses
system.cpu.dcache.overall_accesses::.cpu.data     36131474                       # number of overall (read+write) accesses
system.cpu.dcache.overall_accesses::total     36131474                       # number of overall (read+write) accesses
system.cpu.dcache.demand_miss_rate::.cpu.data     0.005303                       # miss rate for demand accesses
system.cpu.dcache.demand_miss_rate::total     0.005303                       # miss rate for demand accesses
system.cpu.dcache.overall_miss_rate::.cpu.data     0.005303                       # miss rate for overall accesses
system.cpu.dcache.overall_miss_rate::total     0.005303                       # miss rate for overall accesses
system.cpu.dcache.demand_avg_miss_latency::.cpu.data 81204.899981                       # average overall miss latency
system.cpu.dcache.demand_avg_miss_latency::total 81204.899981                       # average overall miss latency
system.cpu.dcache.overall_avg_miss_latency::.cpu.data 81204.899981                       # average overall miss latency
system.cpu.dcache.overall_avg_miss_latency::total 81204.899981                       # average overall miss latency
system.cpu.dcache.blocked_cycles::no_mshrs            0                       # number of cycles access was blocked
system.cpu.dcache.blocked_cycles::no_targets            0                       # number of cycles access was blocked
system.cpu.dcache.blocked::no_mshrs                 0                       # number of cycles access was blocked
system.cpu.dcache.blocked::no_targets               0                       # number of cycles access was blocked
system.cpu.dcache.avg_blocked_cycles::no_mshrs          nan                       # average number of cycles each access was blocked
system.cpu.dcache.avg_blocked_cycles::no_targets          nan                       # average number of cycles each access was blocked
system.cpu.dcache.writebacks::.writebacks       153751                       # number of writebacks
system.cpu.dcache.writebacks::total            153751                       # number of writebacks
system.cpu.dcache.demand_mshr_misses::.cpu.data       191613                       # number of demand (read+write) MSHR misses
system.cpu.dcache.demand_mshr_misses::total       191613                       # number of demand (read+write) MSHR misses
system.cpu.dcache.overall_mshr_misses::.cpu.data       191613                       # number of overall MSHR misses
system.cpu.dcache.overall_mshr_misses::total       191613                       # number of overall MSHR misses
system.cpu.dcache.demand_mshr_miss_latency::.cpu.data  15368301500                       # number of demand (read+write) MSHR miss cycles
system.cpu.dcache.demand_mshr_miss_latency::total  15368301500                       # number of demand (read+write) MSHR miss cycles
system.cpu.dcache.overall_mshr_miss_latency::.cpu.data  15368301500                       # number of overall MSHR miss cycles
system.cpu.dcache.overall_mshr_miss_latency::total  15368301500                       # number of overall MSHR miss cycles
system.cpu.dcache.demand_mshr_miss_rate::.cpu.data     0.005303                       # mshr miss rate for demand accesses
system.cpu.dcache.demand_mshr_miss_rate::total     0.005303                       # mshr miss rate for demand accesses
system.cpu.dcache.overall_mshr_miss_rate::.cpu.data     0.005303                       # mshr miss rate for overall accesses
system.cpu.dcache.overall_mshr_miss_rate::total     0.005303                       # mshr miss rate for overall accesses
system.cpu.dcache.demand_avg_mshr_miss_latency::.cpu.data 80204.899981                       # average overall mshr miss latency
system.cpu.dcache.demand_avg_mshr_miss_latency::total 80204.899981                       # average overall mshr miss latency
system.cpu.dcache.overall_avg_mshr_miss_latency::.cpu.data 80204.899981                       # average overall mshr miss latency
system.cpu.dcache.overall_avg_mshr_miss_latency::total 80204.899981                       # average overall mshr miss latency
system.cpu.dcache.replacements                 187517                       # number of replacements
system.cpu.dcache.ReadReq_hits::.cpu.data     25993655                       # number of ReadReq hits
system.cpu.dcache.ReadReq_hits::total        25993655                       # number of ReadReq hits
system.cpu.dcache.ReadReq_misses::.cpu.data        80216                       # number of ReadReq misses
system.cpu.dcache.ReadReq_misses::total         80216                       # number of ReadReq misses
system.cpu.dcache.ReadReq_miss_latency::.cpu.data   6884860500                       # number of ReadReq miss cycles
system.cpu.dcache.ReadReq_miss_latency::total   6884860500                       # number of ReadReq miss cycles
system.cpu.dcache.ReadReq_accesses::.cpu.data     26073871                       # number of ReadReq accesses(hits+misses)
system.cpu.dcache.ReadReq_accesses::total     26073871                       # number of ReadReq accesses(hits+misses)
system.cpu.dcache.ReadReq_miss_rate::.cpu.data     0.003076                       # miss rate for ReadReq accesses
system.cpu.dcache.ReadReq_miss_rate::total     0.003076                       # miss rate for ReadReq accesses
system.cpu.dcache.ReadReq_avg_miss_latency::.cpu.data 85829.017902                       # average ReadReq miss latency
system.cpu.dcache.ReadReq_avg_miss_latency::total 85829.017902                       # average ReadReq miss latency
system.cpu.dcache.ReadReq_mshr_misses::.cpu.data        80216                       # number of ReadReq MSHR misses
system.cpu.dcache.ReadReq_mshr_misses::total        80216                       # number of ReadReq MSHR misses
system.cpu.dcache.ReadReq_mshr_miss_latency::.cpu.data   6804644500                       # number of ReadReq MSHR miss cycles
system.cpu.dcache.ReadReq_mshr_miss_latency::total   6804644500                       # number of ReadReq MSHR miss cycles
system.cpu.dcache.ReadReq_mshr_miss_rate::.cpu.data     0.003076                       # mshr miss rate for ReadReq accesses
system.cpu.dcache.ReadReq_mshr_miss_rate::total     0.003076                       # mshr miss rate for ReadReq accesses
system.cpu.dcache.ReadReq_avg_mshr_miss_latency::.cpu.data 84829.017902                       # average ReadReq mshr miss latency
system.cpu.dcache.ReadReq_avg_mshr_miss_latency::total 84829.017902                       # average ReadReq mshr miss latency
system.cpu.dcache.WriteReq_hits::.cpu.data      9946206                       # number of WriteReq hits
system.cpu.dcache.WriteReq_hits::total        9946206                       # number of WriteReq hits
system.cpu.dcache.WriteReq_misses::.cpu.data       111397                       # number of WriteReq misses
system.cpu.dcache.WriteReq_misses::total       111397                       # number of WriteReq misses
system.cpu.dcache.WriteReq_miss_latency::.cpu.data   8675054000                       # number of WriteReq miss cycles
system.cpu.dcache.WriteReq_miss_latency::total   8675054000                       # number of WriteReq miss cycles
system.cpu.dcache.WriteReq_accesses::.cpu.data     10057603                       # number of WriteReq accesses(hits+misses)
system.cpu.dcache.WriteReq_accesses::total     10057603                       # number of WriteReq accesses(hits+misses)
system.cpu.dcache.WriteReq_miss_rate::.cpu.data     0.011076                       # miss rate for WriteReq accesses
system.cpu.dcache.WriteReq_miss_rate::total     0.011076                       # miss rate for WriteReq accesses
system.cpu.dcache.WriteReq_avg_miss_latency::.cpu.data 77875.113333                       # average WriteReq miss latency
system.cpu.dcache.WriteReq_avg_miss_latency::total 77875.113333                       # average WriteReq miss latency
system.cpu.dcache.WriteReq_mshr_misses::.cpu.data       111397                       # number of WriteReq MSHR misses
system.cpu.dcache.WriteReq_mshr_misses::total       111397                       # number of WriteReq MSHR misses
system.cpu.dcache.WriteReq_mshr_miss_latency::.cpu.data   8563657000                       # number of WriteReq MSHR miss cycles
system.cpu.dcache.WriteReq_mshr_miss_latency::total   8563657000                       # number of WriteReq MSHR miss cycles
system.cpu.dcache.WriteReq_mshr_miss_rate::.cpu.data     0.011076                       # mshr miss rate for WriteReq accesses
system.cpu.dcache.WriteReq_mshr_miss_rate::total     0.011076                       # mshr miss rate for WriteReq accesses
system.cpu.dcache.WriteReq_avg_mshr_miss_latency::.cpu.data 76875.113333                       # average WriteReq mshr miss latency
system.cpu.dcache.WriteReq_avg_mshr_miss_latency::total 76875.113333                       # average WriteReq mshr miss latency
system.cpu.dcache.power_state.pwrStateResidencyTicks::UNDEFINED 137362939500                       # Cumulative time (in ticks) in various power states
system.cpu.dcache.tags.tagsinuse          4081.831856                       # Cycle average of tags in use
system.cpu.dcache.tags.total_refs            36131474                       # Total number of references to valid blocks.
system.cpu.dcache.tags.sampled_refs            191613                       # Sample count of references to valid blocks.
system.cpu.dcache.tags.avg_refs            188.564836                       # Average number of references to valid blocks.
system.cpu.dcache.tags.warmup_cycle            174500                       # Cycle when the warmup percentage was hit.
system.cpu.dcache.tags.occ_blocks::.cpu.data  4081.831856                       # Average occupied blocks per requestor
system.cpu.dcache.tags.occ_percent::.cpu.data     0.996541                       # Average percentage of cache occupancy
system.cpu.dcache.tags.occ_percent::total     0.996541                       # Average percentage of cache occupancy
system.cpu.dcache.tags.occ_task_id_blocks::1024         4096                       # Occupied blocks per task id
system.cpu.dcache.tags.age_task_id_blocks_1024::0           35                       # Occupied blocks per task id
system.cpu.dcache.tags.age_task_id_blocks_1024::1          412                       # Occupied blocks per task id
system.cpu.dcache.tags.age_task_id_blocks_1024::2         3646                       # Occupied blocks per task id
system.cpu.dcache.tags.age_task_id_blocks_1024::3            3                       # Occupied blocks per task id
system.cpu.dcache.tags.occ_task_id_percent::1024            1                       # Percentage of cache occupancy per task id
system.cpu.dcache.tags.tag_accesses          72454561                       # Number of tag accesses
system.cpu.dcache.tags.data_accesses         72454561                       # Number of data accesses
system.cpu.dcache.tags.power_state.pwrStateResidencyTicks::UNDEFINED 137362939500                       # Cumulative time (in ticks) in various power states
system.cpu.dtb.rdAccesses                    26074093                       # TLB accesses on read requests
system.cpu.dtb.wrAccesses                    10058351                       # TLB accesses on write requests
system.cpu.dtb.rdMisses                          1987                       # TLB misses on read requests
system.cpu.dtb.wrMisses                          1560                       # TLB misses on write requests
system.cpu.dtb.walker.power_state.pwrStateResidencyTicks::UNDEFINED 137362939500                       # Cumulative time (in ticks) in various power states
system.cpu.dtb_walker_cache.blocked_cycles::no_mshrs            0                       # number of cycles access was blocked
system.cpu.dtb_walker_cache.blocked_cycles::no_targets            0                       # number of cycles access was blocked
system.cpu.dtb_walker_cache.blocked::no_mshrs            0                       # number of cycles access was blocked
system.cpu.dtb_walker_cache.blocked::no_targets            0                       # number of cycles access was blocked
system.cpu.dtb_walker_cache.avg_blocked_cycles::no_mshrs          nan                       # average number of cycles each access was blocked
system.cpu.dtb_walker_cache.avg_blocked_cycles::no_targets          nan                       # average number of cycles each access was blocked
system.cpu.dtb_walker_cache.replacements            0                       # number of replacements
system.cpu.dtb_walker_cache.power_state.pwrStateResidencyTicks::UNDEFINED 137362939500                       # Cumulative time (in ticks) in various power states
system.cpu.dtb_walker_cache.tags.tagsinuse            0                       # Cycle average of tags in use
system.cpu.dtb_walker_cache.tags.total_refs            0                       # Total number of references to valid blocks.
system.cpu.dtb_walker_cache.tags.sampled_refs            0                       # Sample count of references to valid blocks.
system.cpu.dtb_walker_cache.tags.avg_refs          nan                       # Average number of references to valid blocks.
system.cpu.dtb_walker_cache.tags.warmup_cycle            0                       # Cycle when the warmup percentage was hit.
system.cpu.dtb_walker_cache.tags.tag_accesses            0                       # Number of tag accesses
system.cpu.dtb_walker_cache.tags.data_accesses            0                       # Number of data accesses
system.cpu.dtb_walker_cache.tags.power_state.pwrStateResidencyTicks::UNDEFINED 137362939500                       # Cumulative time (in ticks) in various power states
system.cpu.icache.demand_hits::.cpu.inst     85584520                       # number of demand (read+write) hits
system.cpu.icache.demand_hits::total         85584520                       # number of demand (read+write) hits
system.cpu.icache.overall_hits::.cpu.inst     85584520                       # number of overall hits
system.cpu.icache.overall_hits::total        85584520                       # number of overall hits
system.cpu.icache.demand_misses::.cpu.inst         3974                       # number of demand (read+write) misses
system.cpu.icache.demand_misses::total           3974                       # number of demand (read+write) misses
system.cpu.icache.overall_misses::.cpu.inst         3974                       # number of overall misses
system.cpu.icache.overall_misses::total          3974                       # number of overall misses
system.cpu.icache.demand_miss_latency::.cpu.inst    313565000                       # number of demand (read+write) miss cycles
system.cpu.icache.demand_miss_latency::total    313565000                       # number of demand (read+write) miss cycles
system.cpu.icache.overall_miss_latency::.cpu.inst    313565000                       # number of overall miss cycles
system.cpu.icache.overall_miss_latency::total    313565000                       # number of overall miss cycles
system.cpu.icache.demand_accesses::.cpu.inst     85588494                       # number of demand (read+write) accesses
system.cpu.icache.demand_accesses::total     85588494                       # number of demand (read+write) accesses
system.cpu.icache.overall_accesses::.cpu.inst     85588494                       # number of overall (read+write) accesses
system.cpu.icache.overall_accesses::total     85588494                       # number of overall (read+write) accesses
system.cpu.icache.demand_miss_rate::.cpu.inst     0.000046                       # miss rate for demand accesses
system.cpu.icache.demand_miss_rate::total     0.000046                       # miss rate for demand accesses
system.cpu.icache.overall_miss_rate::.cpu.inst     0.000046                       # miss rate for overall accesses
system.cpu.icache.overall_miss_rate::total     0.000046                       # miss rate for overall accesses
system.cpu.icache.demand_avg_miss_latency::.cpu.inst 78904.126824                       # average overall miss latency
system.cpu.icache.demand_avg_miss_latency::total 78904.126824                       # average overall miss latency
system.cpu.icache.overall_avg_miss_latency::.cpu.inst 78904.126824                       # average overall miss latency
system.cpu.icache.overall_avg_miss_latency::total 78904.126824                       # average overall miss latency
system.cpu.icache.blocked_cycles::no_mshrs            0                       # number of cycles access was blocked
system.cpu.icache.blocked_cycles::no_targets            0                       # number of cycles access was blocked
system.cpu.icache.blocked::no_mshrs                 0                       # number of cycles access was blocked
system.cpu.icache.blocked::no_targets               0                       # number of cycles access was blocked
system.cpu.icache.avg_blocked_cycles::no_mshrs          nan                       # average number of cycles each access was blocked
system.cpu.icache.avg_blocked_cycles::no_targets          nan                       # average number of cycles each access was blocked
system.cpu.icache.writebacks::.writebacks          869                       # number of writebacks
system.cpu.icache.writebacks::total               869                       # number of writebacks
system.cpu.icache.demand_mshr_misses::.cpu.inst         3974                       # number of demand (read+write) MSHR misses
system.cpu.icache.demand_mshr_misses::total         3974                       # number of demand (read+write) MSHR misses
system.cpu.icache.overall_mshr_misses::.cpu.inst         3974                       # number of overall MSHR misses
system.cpu.icache.overall_mshr_misses::total         3974                       # number of overall MSHR misses
system.cpu.icache.demand_mshr_miss_latency::.cpu.inst    309591000                       # number of demand (read+write) MSHR miss cycles
system.cpu.icache.demand_mshr_miss_latency::total    309591000                       # number of demand (read+write) MSHR miss cycles
system.cpu.icache.overall_mshr_miss_latency::.cpu.inst    309591000                       # number of overall MSHR miss cycles
system.cpu.icache.overall_mshr_miss_latency::total    309591000                       # number of overall MSHR miss cycles
system.cpu.icache.demand_mshr_miss_rate::.cpu.inst     0.000046                       # mshr miss rate for demand accesses
system.cpu.icache.demand_mshr_miss_rate::total     0.000046                       # mshr miss rate for demand accesses
system.cpu.icache.overall_mshr_miss_rate::.cpu.inst     0.000046                       # mshr miss rate for overall accesses
system.cpu.icache.overall_mshr_miss_rate::total     0.000046                       # mshr miss rate for overall accesses
system.cpu.icache.demand_avg_mshr_miss_latency::.cpu.inst 77904.126824                       # average overall mshr miss latency
system.cpu.icache.demand_avg_mshr_miss_latency::total 77904.126824                       # average overall mshr miss latency
system.cpu.icache.overall_avg_mshr_miss_latency::.cpu.inst 77904.126824                       # average overall mshr miss latency
system.cpu.icache.overall_avg_mshr_miss_latency::total 77904.126824                       # average overall mshr miss latency
system.cpu.icache.replacements                    869                       # number of replacements
system.cpu.icache.ReadReq_hits::.cpu.inst     85584520                       # number of ReadReq hits
system.cpu.icache.ReadReq_hits::total        85584520                       # number of ReadReq hits
system.cpu.icache.ReadReq_misses::.cpu.inst         3974                       # number of ReadReq misses
system.cpu.icache.ReadReq_misses::total          3974                       # number of ReadReq misses
system.cpu.icache.ReadReq_miss_latency::.cpu.inst    313565000                       # number of ReadReq miss cycles
system.cpu.icache.ReadReq_miss_latency::total    313565000                       # number of ReadReq miss cycles
system.cpu.icache.ReadReq_accesses::.cpu.inst     85588494                       # number of ReadReq accesses(hits+misses)
system.cpu.icache.ReadReq_accesses::total     85588494                       # number of ReadReq accesses(hits+misses)
system.cpu.icache.ReadReq_miss_rate::.cpu.inst     0.000046                       # miss rate for ReadReq accesses
system.cpu.icache.ReadReq_miss_rate::total     0.000046                       # miss rate for ReadReq accesses
system.cpu.icache.ReadReq_avg_miss_latency::.cpu.inst 78904.126824                       # average ReadReq miss latency
system.cpu.icache.ReadReq_avg_miss_latency::total 78904.126824                       # average ReadReq miss latency
system.cpu.icache.ReadReq_mshr_misses::.cpu.inst         3974                       # number of ReadReq MSHR misses
system.cpu.icache.ReadReq_mshr_misses::total         3974                       # number of ReadReq MSHR misses
system.cpu.icache.ReadReq_mshr_miss_latency::.cpu.inst    309591000                       # number of ReadReq MSHR miss cycles
system.cpu.icache.ReadReq_mshr_miss_latency::total    309591000                       # number of ReadReq MSHR miss cycles
system.cpu.icache.ReadReq_mshr_miss_rate::.cpu.inst     0.000046                       # mshr miss rate for ReadReq accesses
system.cpu.icache.ReadReq_mshr_miss_rate::total     0.000046                       # mshr miss rate for ReadReq accesses
system.cpu.icache.ReadReq_avg_mshr_miss_latency::.cpu.inst 77904.126824                       # average ReadReq mshr miss latency
system.cpu.icache.ReadReq_avg_mshr_miss_latency::total 77904.126824                       # average ReadReq mshr miss latency
system.cpu.icache.power_state.pwrStateResidencyTicks::UNDEFINED 137362939500                       # Cumulative time (in ticks) in various power states
system.cpu.icache.tags.tagsinuse          2681.678084                       # Cycle average of tags in use
system.cpu.icache.tags.total_refs            85588494                       # Total number of references to valid blocks.
system.cpu.icache.tags.sampled_refs              3974                       # Sample count of references to valid blocks.
system.cpu.icache.tags.avg_refs          21537.114746                       # Average number of references to valid blocks.
system.cpu.icache.tags.warmup_cycle             87500                       # Cycle when the warmup percentage was hit.
system.cpu.icache.tags.occ_blocks::.cpu.inst  2681.678084                       # Average occupied blocks per requestor
system.cpu.icache.tags.occ_percent::.cpu.inst     0.654707                       # Average percentage of cache occupancy
system.cpu.icache.tags.occ_percent::total     0.654707                       # Average percentage of cache occupancy
system.cpu.icache.tags.occ_task_id_blocks::1024         3105                       # Occupied blocks per task id
system.cpu.icache.tags.age_task_id_blocks_1024::0           60                       # Occupied blocks per task id
system.cpu.icache.tags.age_task_id_blocks_1024::1          360                       # Occupied blocks per task id
system.cpu.icache.tags.age_task_id_blocks_1024::2           28                       # Occupied blocks per task id
system.cpu.icache.tags.age_task_id_blocks_1024::3          212                       # Occupied blocks per task id
system.cpu.icache.tags.age_task_id_blocks_1024::4         2445                       # Occupied blocks per task id
system.cpu.icache.tags.occ_task_id_percent::1024     0.758057                       # Percentage of cache occupancy per task id
system.cpu.icache.tags.tag_accesses         171180962                       # Number of tag accesses
system.cpu.icache.tags.data_accesses        171180962                       # Number of data accesses
system.cpu.icache.tags.power_state.pwrStateResidencyTicks::UNDEFINED 137362939500                       # Cumulative time (in ticks) in various power states
system.cpu.interrupts.clk_domain.clock           8000                       # Clock period in ticks
system.cpu.itb.rdAccesses                           0                       # TLB accesses on read requests
system.cpu.itb.wrAccesses                    85588623                       # TLB accesses on write requests
system.cpu.itb.rdMisses                             0                       # TLB misses on read requests
system.cpu.itb.wrMisses                           542                       # TLB misses on write requests
system.cpu.itb.walker.power_state.pwrStateResidencyTicks::UNDEFINED 137362939500                       # Cumulative time (in ticks) in various power states
system.cpu.itb_walker_cache.blocked_cycles::no_mshrs            0                       # number of cycles access was blocked
system.cpu.itb_walker_cache.blocked_cycles::no_targets            0                       # number of cycles access was blocked
system.cpu.itb_walker_cache.blocked::no_mshrs            0                       # number of cycles access was blocked
system.cpu.itb_walker_cache.blocked::no_targets            0                       # number of cycles access was blocked
system.cpu.itb_walker_cache.avg_blocked_cycles::no_mshrs          nan                       # average number of cycles each access was blocked
system.cpu.itb_walker_cache.avg_blocked_cycles::no_targets          nan                       # average number of cycles each access was blocked
system.cpu.itb_walker_cache.replacements            0                       # number of replacements
system.cpu.itb_walker_cache.power_state.pwrStateResidencyTicks::UNDEFINED 137362939500                       # Cumulative time (in ticks) in various power states
system.cpu.itb_walker_cache.tags.tagsinuse            0                       # Cycle average of tags in use
system.cpu.itb_walker_cache.tags.total_refs            0                       # Total number of references to valid blocks.
system.cpu.itb_walker_cache.tags.sampled_refs            0                       # Sample count of references to valid blocks.
system.cpu.itb_walker_cache.tags.avg_refs          nan                       # Average number of references to valid blocks.
system.cpu.itb_walker_cache.tags.warmup_cycle            0                       # Cycle when the warmup percentage was hit.
system.cpu.itb_walker_cache.tags.tag_accesses            0                       # Number of tag accesses
system.cpu.itb_walker_cache.tags.data_accesses            0                       # Number of data accesses
system.cpu.itb_walker_cache.tags.power_state.pwrStateResidencyTicks::UNDEFINED 137362939500                       # Cumulative time (in ticks) in various power states
system.cpu.power_state.pwrStateResidencyTicks::ON 137362939500                       # Cumulative time (in ticks) in various power states
system.cpu.thread_0.numInsts                        0                       # Number of Instructions committed
system.cpu.thread_0.numOps                          0                       # Number of Ops committed
system.cpu.thread_0.numMemRefs                      0                       # Number of Memory References
system.cpu_clk_domain.clock                       500                       # Clock period in ticks
system.cpu_voltage_domain.voltage                   1                       # Voltage in Volts
system.l2.demand_hits::.cpu.inst                   25                       # number of demand (read+write) hits
system.l2.demand_hits::.cpu.data                 7219                       # number of demand (read+write) hits
system.l2.demand_hits::total                     7244                       # number of demand (read+write) hits
system.l2.overall_hits::.cpu.inst                  25                       # number of overall hits
system.l2.overall_hits::.cpu.data                7219                       # number of overall hits
system.l2.overall_hits::total                    7244                       # number of overall hits
system.l2.demand_misses::.cpu.inst               3949                       # number of demand (read+write) misses
system.l2.demand_misses::.cpu.data             184394                       # number of demand (read+write) misses
system.l2.demand_misses::total                 188343                       # number of demand (read+write) misses
system.l2.overall_misses::.cpu.inst              3949                       # number of overall misses
system.l2.overall_misses::.cpu.data            184394                       # number of overall misses
system.l2.overall_misses::total                188343                       # number of overall misses
system.l2.demand_miss_latency::.cpu.inst    303367500                       # number of demand (read+write) miss cycles
system.l2.demand_miss_latency::.cpu.data  15005032000                       # number of demand (read+write) miss cycles
system.l2.demand_miss_latency::total      15308399500                       # number of demand (read+write) miss cycles
system.l2.overall_miss_latency::.cpu.inst    303367500                       # number of overall miss cycles
system.l2.overall_miss_latency::.cpu.data  15005032000                       # number of overall miss cycles
system.l2.overall_miss_latency::total     15308399500                       # number of overall miss cycles
system.l2.demand_accesses::.cpu.inst             3974                       # number of demand (read+write) accesses
system.l2.demand_accesses::.cpu.data           191613                       # number of demand (read+write) accesses
system.l2.demand_accesses::total               195587                       # number of demand (read+write) accesses
system.l2.overall_accesses::.cpu.inst            3974                       # number of overall (read+write) accesses
system.l2.overall_accesses::.cpu.data          191613                       # number of overall (read+write) accesses
system.l2.overall_accesses::total              195587                       # number of overall (read+write) accesses
system.l2.demand_miss_rate::.cpu.inst        0.993709                       # miss rate for demand accesses
system.l2.demand_miss_rate::.cpu.data        0.962325                       # miss rate for demand accesses
system.l2.demand_miss_rate::total            0.962963                       # miss rate for demand accesses
system.l2.overall_miss_rate::.cpu.inst       0.993709                       # miss rate for overall accesses
system.l2.overall_miss_rate::.cpu.data       0.962325                       # miss rate for overall accesses
system.l2.overall_miss_rate::total           0.962963                       # miss rate for overall accesses
system.l2.demand_avg_miss_latency::.cpu.inst 76821.347177                       # average overall miss latency
system.l2.demand_avg_miss_latency::.cpu.data 81374.838661                       # average overall miss latency
system.l2.demand_avg_miss_latency::total 81279.365307                       # average overall miss latency
system.l2.overall_avg_miss_latency::.cpu.inst 76821.347177                       # average overall miss latency
system.l2.overall_avg_miss_latency::.cpu.data 81374.838661                       # average overall miss latency
system.l2.overall_avg_miss_latency::total 81279.365307                       # average overall miss latency
system.l2.blocked_cycles::no_mshrs                  0                       # number of cycles access was blocked
system.l2.blocked_cycles::no_targets                0                       # number of cycles access was blocked
system.l2.blocked::no_mshrs                         0                       # number of cycles access was blocked
system.l2.blocked::no_targets                       0                       # number of cycles access was blocked
system.l2.avg_blocked_cycles::no_mshrs            nan                       # average number of cycles each access was blocked
system.l2.avg_blocked_cycles::no_targets          nan                       # average number of cycles each access was blocked
system.l2.writebacks::.writebacks              145787                       # number of writebacks
system.l2.writebacks::total                    145787                       # number of writebacks
system.l2.demand_mshr_misses::.cpu.inst          3949                       # number of demand (read+write) MSHR misses
system.l2.demand_mshr_misses::.cpu.data        184394                       # number of demand (read+write) MSHR misses
system.l2.demand_mshr_misses::total            188343                       # number of demand (read+write) MSHR misses
system.l2.overall_mshr_misses::.cpu.inst         3949                       # number of overall MSHR misses
system.l2.overall_mshr_misses::.cpu.data       184394                       # number of overall MSHR misses
system.l2.overall_mshr_misses::total           188343                       # number of overall MSHR misses
system.l2.demand_mshr_miss_latency::.cpu.inst    263877500                       # number of demand (read+write) MSHR miss cycles
system.l2.demand_mshr_miss_latency::.cpu.data  13161092000                       # number of demand (read+write) MSHR miss cycles
system.l2.demand_mshr_miss_latency::total  13424969500                       # number of demand (read+write) MSHR miss cycles
system.l2.overall_mshr_miss_latency::.cpu.inst    263877500                       # number of overall MSHR miss cycles
system.l2.overall_mshr_miss_latency::.cpu.data  13161092000                       # number of overall MSHR miss cycles
system.l2.overall_mshr_miss_latency::total  13424969500                       # number of overall MSHR miss cycles
system.l2.demand_mshr_miss_rate::.cpu.inst     0.993709                       # mshr miss rate for demand accesses
system.l2.demand_mshr_miss_rate::.cpu.data     0.962325                       # mshr miss rate for demand accesses
system.l2.demand_mshr_miss_rate::total       0.962963                       # mshr miss rate for demand accesses
system.l2.overall_mshr_miss_rate::.cpu.inst     0.993709                       # mshr miss rate for overall accesses
system.l2.overall_mshr_miss_rate::.cpu.data     0.962325                       # mshr miss rate for overall accesses
system.l2.overall_mshr_miss_rate::total      0.962963                       # mshr miss rate for overall accesses
system.l2.demand_avg_mshr_miss_latency::.cpu.inst 66821.347177                       # average overall mshr miss latency
system.l2.demand_avg_mshr_miss_latency::.cpu.data 71374.838661                       # average overall mshr miss latency
system.l2.demand_avg_mshr_miss_latency::total 71279.365307                       # average overall mshr miss latency
system.l2.overall_avg_mshr_miss_latency::.cpu.inst 66821.347177                       # average overall mshr miss latency
system.l2.overall_avg_mshr_miss_latency::.cpu.data 71374.838661                       # average overall mshr miss latency
system.l2.overall_avg_mshr_miss_latency::total 71279.365307                       # average overall mshr miss latency
system.l2.replacements                         322063                       # number of replacements
system.l2.WritebackDirty_hits::.writebacks       153751                       # number of WritebackDirty hits
system.l2.WritebackDirty_hits::total           153751                       # number of WritebackDirty hits
system.l2.WritebackDirty_accesses::.writebacks       153751                       # number of WritebackDirty accesses(hits+misses)
system.l2.WritebackDirty_accesses::total       153751                       # number of WritebackDirty accesses(hits+misses)
system.l2.WritebackClean_hits::.writebacks          869                       # number of WritebackClean hits
system.l2.WritebackClean_hits::total              869                       # number of WritebackClean hits
system.l2.WritebackClean_accesses::.writebacks          869                       # number of WritebackClean accesses(hits+misses)
system.l2.WritebackClean_accesses::total          869                       # number of WritebackClean accesses(hits+misses)
system.l2.CleanEvict_mshr_misses::.writebacks        25271                       # number of CleanEvict MSHR misses
system.l2.CleanEvict_mshr_misses::total         25271                       # number of CleanEvict MSHR misses
system.l2.CleanEvict_mshr_miss_rate::.writebacks          inf                       # mshr miss rate for CleanEvict accesses
system.l2.CleanEvict_mshr_miss_rate::total          inf                       # mshr miss rate for CleanEvict accesses
system.l2.ReadExReq_hits::.cpu.data               746                       # number of ReadExReq hits
system.l2.ReadExReq_hits::total                   746                       # number of ReadExReq hits
system.l2.ReadExReq_misses::.cpu.data          110651                       # number of ReadExReq misses
system.l2.ReadExReq_misses::total              110651                       # number of ReadExReq misses
system.l2.ReadExReq_miss_latency::.cpu.data   8388727500                       # number of ReadExReq miss cycles
system.l2.ReadExReq_miss_latency::total    8388727500                       # number of ReadExReq miss cycles
system.l2.ReadExReq_accesses::.cpu.data        111397                       # number of ReadExReq accesses(hits+misses)
system.l2.ReadExReq_accesses::total            111397                       # number of ReadExReq accesses(hits+misses)
system.l2.ReadExReq_miss_rate::.cpu.data     0.993303                       # miss rate for ReadExReq accesses
system.l2.ReadExReq_miss_rate::total         0.993303                       # miss rate for ReadExReq accesses
system.l2.ReadExReq_avg_miss_latency::.cpu.data 75812.487009                       # average ReadExReq miss latency
system.l2.ReadExReq_avg_miss_latency::total 75812.487009                       # average ReadExReq miss latency
system.l2.ReadExReq_mshr_misses::.cpu.data       110651                       # number of ReadExReq MSHR misses
system.l2.ReadExReq_mshr_misses::total         110651                       # number of ReadExReq MSHR misses
system.l2.ReadExReq_mshr_miss_latency::.cpu.data   7282217500                       # number of ReadExReq MSHR miss cycles
system.l2.ReadExReq_mshr_miss_latency::total   7282217500                       # number of ReadExReq MSHR miss cycles
system.l2.ReadExReq_mshr_miss_rate::.cpu.data     0.993303                       # mshr miss rate for ReadExReq accesses
system.l2.ReadExReq_mshr_miss_rate::total     0.993303                       # mshr miss rate for ReadExReq accesses
system.l2.ReadExReq_avg_mshr_miss_latency::.cpu.data 65812.487009                       # average ReadExReq mshr miss latency
system.l2.ReadExReq_avg_mshr_miss_latency::total 65812.487009                       # average ReadExReq mshr miss latency
system.l2.ReadCleanReq_hits::.cpu.inst             25                       # number of ReadCleanReq hits
system.l2.ReadCleanReq_hits::total                 25                       # number of ReadCleanReq hits
system.l2.ReadCleanReq_misses::.cpu.inst         3949                       # number of ReadCleanReq misses
system.l2.ReadCleanReq_misses::total             3949                       # number of ReadCleanReq misses
system.l2.ReadCleanReq_miss_latency::.cpu.inst    303367500                       # number of ReadCleanReq miss cycles
system.l2.ReadCleanReq_miss_latency::total    303367500                       # number of ReadCleanReq miss cycles
system.l2.ReadCleanReq_accesses::.cpu.inst         3974                       # number of ReadCleanReq accesses(hits+misses)
system.l2.ReadCleanReq_accesses::total           3974                       # number of ReadCleanReq accesses(hits+misses)
system.l2.ReadCleanReq_miss_rate::.cpu.inst     0.993709                       # miss rate for ReadCleanReq accesses
system.l2.ReadCleanReq_miss_rate::total      0.993709                       # miss rate for ReadCleanReq accesses
system.l2.ReadCleanReq_avg_miss_latency::.cpu.inst 76821.347177                       # average ReadCleanReq miss latency
system.l2.ReadCleanReq_avg_miss_latency::total 76821.347177                       # average ReadCleanReq miss latency
system.l2.ReadCleanReq_mshr_misses::.cpu.inst         3949                       # number of ReadCleanReq MSHR misses
system.l2.ReadCleanReq_mshr_misses::total         3949                       # number of ReadCleanReq MSHR misses
system.l2.ReadCleanReq_mshr_miss_latency::.cpu.inst    263877500                       # number of ReadCleanReq MSHR miss cycles
system.l2.ReadCleanReq_mshr_miss_latency::total    263877500                       # number of ReadCleanReq MSHR miss cycles
system.l2.ReadCleanReq_mshr_miss_rate::.cpu.inst     0.993709                       # mshr miss rate for ReadCleanReq accesses
system.l2.ReadCleanReq_mshr_miss_rate::total     0.993709                       # mshr miss rate for ReadCleanReq accesses
system.l2.ReadCleanReq_avg_mshr_miss_latency::.cpu.inst 66821.347177                       # average ReadCleanReq mshr miss latency
system.l2.ReadCleanReq_avg_mshr_miss_latency::total 66821.347177                       # average ReadCleanReq mshr miss latency
system.l2.ReadSharedReq_hits::.cpu.data          6473                       # number of ReadSharedReq hits
system.l2.ReadSharedReq_hits::total              6473                       # number of ReadSharedReq hits
system.l2.ReadSharedReq_misses::.cpu.data        73743                       # number of ReadSharedReq misses
system.l2.ReadSharedReq_misses::total           73743                       # number of ReadSharedReq misses
system.l2.ReadSharedReq_miss_latency::.cpu.data   6616304500                       # number of ReadSharedReq miss cycles
system.l2.ReadSharedReq_miss_latency::total   6616304500                       # number of ReadSharedReq miss cycles
system.l2.ReadSharedReq_accesses::.cpu.data        80216                       # number of ReadSharedReq accesses(hits+misses)
system.l2.ReadSharedReq_accesses::total         80216                       # number of ReadSharedReq accesses(hits+misses)
system.l2.ReadSharedReq_miss_rate::.cpu.data     0.919305                       # miss rate for ReadSharedReq accesses
system.l2.ReadSharedReq_miss_rate::total     0.919305                       # miss rate for ReadSharedReq accesses
system.l2.ReadSharedReq_avg_miss_latency::.cpu.data 89721.119293                       # average ReadSharedReq miss latency
system.l2.ReadSharedReq_avg_miss_latency::total 89721.119293                       # average ReadSharedReq miss latency
system.l2.ReadSharedReq_mshr_misses::.cpu.data        73743                       # number of ReadSharedReq MSHR misses
system.l2.ReadSharedReq_mshr_misses::total        73743                       # number of ReadSharedReq MSHR misses
system.l2.ReadSharedReq_mshr_miss_latency::.cpu.data   5878874500                       # number of ReadSharedReq MSHR miss cycles
system.l2.ReadSharedReq_mshr_miss_latency::total   5878874500                       # number of ReadSharedReq MSHR miss cycles
system.l2.ReadSharedReq_mshr_miss_rate::.cpu.data     0.919305                       # mshr miss rate for ReadSharedReq accesses
system.l2.ReadSharedReq_mshr_miss_rate::total     0.919305                       # mshr miss rate for ReadSharedReq accesses
system.l2.ReadSharedReq_avg_mshr_miss_latency::.cpu.data 79721.119293                       # average ReadSharedReq mshr miss latency
system.l2.ReadSharedReq_avg_mshr_miss_latency::total 79721.119293                       # average ReadSharedReq mshr miss latency
system.l2.power_state.pwrStateResidencyTicks::UNDEFINED 137362939500                       # Cumulative time (in ticks) in various power states
system.l2.tags.tagsinuse                  4089.506932                       # Cycle average of tags in use
system.l2.tags.total_refs                      358702                       # Total number of references to valid blocks.
system.l2.tags.sampled_refs                    326159                       # Sample count of references to valid blocks.
system.l2.tags.avg_refs                      1.099776                       # Average number of references to valid blocks.
system.l2.tags.warmup_cycle                     77000                       # Cycle when the warmup percentage was hit.
system.l2.tags.occ_blocks::.writebacks    1818.114561                       # Average occupied blocks per requestor
system.l2.tags.occ_blocks::.cpu.inst        35.384525                       # Average occupied blocks per requestor
system.l2.tags.occ_blocks::.cpu.data      2236.007846                       # Average occupied blocks per requestor
system.l2.tags.occ_percent::.writebacks      0.443876                       # Average percentage of cache occupancy
system.l2.tags.occ_percent::.cpu.inst        0.008639                       # Average percentage of cache occupancy
system.l2.tags.occ_percent::.cpu.data        0.545900                       # Average percentage of cache occupancy
system.l2.tags.occ_percent::total            0.998415                       # Average percentage of cache occupancy
system.l2.tags.occ_task_id_blocks::1024          4096                       # Occupied blocks per task id
system.l2.tags.age_task_id_blocks_1024::0          163                       # Occupied blocks per task id
system.l2.tags.age_task_id_blocks_1024::1         1338                       # Occupied blocks per task id
system.l2.tags.age_task_id_blocks_1024::2         2595                       # Occupied blocks per task id
system.l2.tags.occ_task_id_percent::1024            1                       # Percentage of cache occupancy per task id
system.l2.tags.tag_accesses                 196920335                       # Number of tag accesses
system.l2.tags.data_accesses                196920335                       # Number of data accesses
system.l2.tags.power_state.pwrStateResidencyTicks::UNDEFINED 137362939500                       # Cumulative time (in ticks) in various power states
system.mem_ctrls.avgPriority_.writebacks::samples     77644.00                       # Average QoS priority value for accepted requests
system.mem_ctrls.avgPriority_.cpu.inst::samples      3949.00                       # Average QoS priority value for accepted requests
system.mem_ctrls.avgPriority_.cpu.data::samples    184320.00                       # Average QoS priority value for accepted requests
system.mem_ctrls.priorityMinLatency      0.000000018750                       # per QoS priority minimum request to response latency (s)
system.mem_ctrls.priorityMaxLatency      0.032617099750                       # per QoS priority maximum request to response latency (s)
system.mem_ctrls.numReadWriteTurnArounds         4388                       # Number of turnarounds from READ to WRITE
system.mem_ctrls.numWriteReadTurnArounds         4388                       # Number of turnarounds from WRITE to READ
system.mem_ctrls.numStayReadState              556307                       # Number of times bus staying in READ state
system.mem_ctrls.numStayWriteState              73358                       # Number of times bus staying in WRITE state
system.mem_ctrls.readReqs                      188343                       # Number of read requests accepted
system.mem_ctrls.writeReqs                     145787                       # Number of write requests accepted
system.mem_ctrls.readBursts                    188343                       # Number of controller read bursts, including those serviced by the write queue
system.mem_ctrls.writeBursts                   145787                       # Number of controller write bursts, including those merged in the write queue
system.mem_ctrls.servicedByWrQ                     74                       # Number of controller read bursts serviced by the write queue
system.mem_ctrls.mergedWrBursts                 68143                       # Number of controller write bursts merged with an existing one
system.mem_ctrls.neitherReadNorWriteReqs            0                       # Number of requests that are neither read nor write
system.mem_ctrls.avgRdQLen                       1.00                       # Average read queue length when enqueuing
system.mem_ctrls.avgWrQLen                      24.10                       # Average write queue length when enqueuing
system.mem_ctrls.numRdRetry                         0                       # Number of times read queue was full causing retry
system.mem_ctrls.numWrRetry                         0                       # Number of times write queue was full causing retry
system.mem_ctrls.readPktSize::0                     0                       # Read request sizes (log2)
system.mem_ctrls.readPktSize::1                     0                       # Read request sizes (log2)
system.mem_ctrls.readPktSize::2                     0                       # Read request sizes (log2)
system.mem_ctrls.readPktSize::3                     0                       # Read request sizes (log2)
system.mem_ctrls.readPktSize::4                     0                       # Read request sizes (log2)
system.mem_ctrls.readPktSize::5                188343                       # Read request sizes (log2)
system.mem_ctrls.writePktSize::0                    0                       # Write request sizes (log2)
system.mem_ctrls.writePktSize::1                    0                       # Write request sizes (log2)
system.mem_ctrls.writePktSize::2                    0                       # Write request sizes (log2)
system.mem_ctrls.writePktSize::3                    0                       # Write request sizes (log2)
system.mem_ctrls.writePktSize::4                    0                       # Write request sizes (log2)
system.mem_ctrls.writePktSize::5               145787                       # Write request sizes (log2)
system.mem_ctrls.rdQLenPdf::0                  188248                       # What read queue length does an incoming req see
system.mem_ctrls.rdQLenPdf::1                      21                       # What read queue length does an incoming req see
system.mem_ctrls.rdQLenPdf::2                       0                       # What read queue length does an incoming req see
system.mem_ctrls.rdQLenPdf::3                       0                       # What read queue length does an incoming req see
system.mem_ctrls.rdQLenPdf::4                       0                       # What read queue length does an incoming req see
system.mem_ctrls.rdQLenPdf::5                       0                       # What read queue length does an incoming req see
system.mem_ctrls.rdQLenPdf::6                       0                       # What read queue length does an incoming req see
system.mem_ctrls.rdQLenPdf::7                       0                       # What read queue length does an incoming req see
system.mem_ctrls.rdQLenPdf::8                       0                       # What read queue length does an incoming req see
system.mem_ctrls.rdQLenPdf::9                       0                       # What read queue length does an incoming req see
system.mem_ctrls.rdQLenPdf::10                      0                       # What read queue length does an incoming req see
system.mem_ctrls.rdQLenPdf::11                      0                       # What read queue length does an incoming req see
system.mem_ctrls.rdQLenPdf::12                      0                       # What read queue length does an incoming req see
system.mem_ctrls.rdQLenPdf::13                      0                       # What read queue length does an incoming req see
system.mem_ctrls.rdQLenPdf::14                      0                       # What read queue length does an incoming req see
system.mem_ctrls.rdQLenPdf::15                      0                       # What read queue length does an incoming req see
system.mem_ctrls.rdQLenPdf::16                      0                       # What read queue length does an incoming req see
system.mem_ctrls.rdQLenPdf::17                      0                       # What read queue length does an incoming req see
system.mem_ctrls.rdQLenPdf::18                      0                       # What read queue length does an incoming req see
system.mem_ctrls.rdQLenPdf::19                      0                       # What read queue length does an incoming req see
system.mem_ctrls.rdQLenPdf::20                      0                       # What read queue length does an incoming req see
system.mem_ctrls.rdQLenPdf::21                      0                       # What read queue length does an incoming req see
system.mem_ctrls.rdQLenPdf::22                      0                       # What read queue length does an incoming req see
system.mem_ctrls.rdQLenPdf::23                      0                       # What read queue length does an incoming req see
system.mem_ctrls.rdQLenPdf::24                      0                       # What read queue length does an incoming req see
system.mem_ctrls.rdQLenPdf::25                      0                       # What read queue length does an incoming req see
system.mem_ctrls.rdQLenPdf::26                      0                       # What read queue length does an incoming req see
system.mem_ctrls.rdQLenPdf::27                      0                       # What read queue length does an incoming req see
system.mem_ctrls.rdQLenPdf::28                      0                       # What read queue length does an incoming req see
system.mem_ctrls.rdQLenPdf::29                      0                       # What read queue length does an incoming req see
system.mem_ctrls.rdQLenPdf::30                      0                       # What read queue length does an incoming req see
system.mem_ctrls.rdQLenPdf::31                      0                       # What read queue length does an incoming req see
system.mem_ctrls.wrQLenPdf::0                       1                       # What write queue length does an incoming req see
system.mem_ctrls.wrQLenPdf::1                       1                       # What write queue length does an incoming req see
system.mem_ctrls.wrQLenPdf::2                       1                       # What write queue length does an incoming req see
system.mem_ctrls.wrQLenPdf::3                       1                       # What write queue length does an incoming req see
system.mem_ctrls.wrQLenPdf::4                       1                       # What write queue length does an incoming req see
system.mem_ctrls.wrQLenPdf::5                       1                       # What write queue length does an incoming req see
system.mem_ctrls.wrQLenPdf::6                       1                       # What write queue length does an incoming req see
system.mem_ctrls.wrQLenPdf::7                       1                       # What write queue length does an incoming req see
system.mem_ctrls.wrQLenPdf::8                       1                       # What write queue length does an incoming req see
system.mem_ctrls.wrQLenPdf::9                       1                       # What write queue length does an incoming req see
system.mem_ctrls.wrQLenPdf::10                      1                       # What write queue length does an incoming req see
system.mem_ctrls.wrQLenPdf::11                      1                       # What write queue length does an incoming req see
system.mem_ctrls.wrQLenPdf::12                      1                       # What write queue length does an incoming req see
system.mem_ctrls.wrQLenPdf::13                      1                       # What write queue length does an incoming req see
system.mem_ctrls.wrQLenPdf::14                      1                       # What write queue length does an incoming req see
system.mem_ctrls.wrQLenPdf::15                   3654                       # What write queue length does an incoming req see
system.mem_ctrls.wrQLenPdf::16                   3676                       # What write queue length does an incoming req see
system.mem_ctrls.wrQLenPdf::17                   4369                       # What write queue length does an incoming req see
system.mem_ctrls.wrQLenPdf::18                   4393                       # What write queue length does an incoming req see
system.mem_ctrls.wrQLenPdf::19                   4390                       # What write queue length does an incoming req see
system.mem_ctrls.wrQLenPdf::20                   4390                       # What write queue length does an incoming req see
system.mem_ctrls.wrQLenPdf::21                   4390                       # What write queue length does an incoming req see
system.mem_ctrls.wrQLenPdf::22                   4388                       # What write queue length does an incoming req see
system.mem_ctrls.wrQLenPdf::23                   4391                       # What write queue length does an incoming req see
system.mem_ctrls.wrQLenPdf::24                   4389                       # What write queue length does an incoming req see
system.mem_ctrls.wrQLenPdf::25                   4476                       # What write queue length does an incoming req see
system.mem_ctrls.wrQLenPdf::26                   4391                       # What write queue length does an incoming req see
system.mem_ctrls.wrQLenPdf::27                   4388                       # What write queue length does an incoming req see
system.mem_ctrls.wrQLenPdf::28                   4388                       # What write queue length does an incoming req see
system.mem_ctrls.wrQLenPdf::29                   4388                       # What write queue length does an incoming req see
system.mem_ctrls.wrQLenPdf::30                   4389                       # What write queue length does an incoming req see
system.mem_ctrls.wrQLenPdf::31                   4388                       # What write queue length does an incoming req see
system.mem_ctrls.wrQLenPdf::32                   4388                       # What write queue length does an incoming req see
system.mem_ctrls.wrQLenPdf::33                      3                       # What write queue length does an incoming req see
system.mem_ctrls.wrQLenPdf::34                      0                       # What write queue length does an incoming req see
system.mem_ctrls.wrQLenPdf::35                      0                       # What write queue length does an incoming req see
system.mem_ctrls.wrQLenPdf::36                      0                       # What write queue length does an incoming req see
system.mem_ctrls.wrQLenPdf::37                      0                       # What write queue length does an incoming req see
system.mem_ctrls.wrQLenPdf::38                      0                       # What write queue length does an incoming req see
system.mem_ctrls.wrQLenPdf::39                      0                       # What write queue length does an incoming req see
system.mem_ctrls.wrQLenPdf::40                      0                       # What write queue length does an incoming req see
system.mem_ctrls.wrQLenPdf::41                      0                       # What write queue length does an incoming req see
system.mem_ctrls.wrQLenPdf::42                      0                       # What write queue length does an incoming req see
system.mem_ctrls.wrQLenPdf::43                      0                       # What write queue length does an incoming req see
system.mem_ctrls.wrQLenPdf::44                      0                       # What write queue length does an incoming req see
system.mem_ctrls.wrQLenPdf::45                      0                       # What write queue length does an incoming req see
system.mem_ctrls.wrQLenPdf::46                      0                       # What write queue length does an incoming req see
system.mem_ctrls.wrQLenPdf::47                      0                       # What write queue length does an incoming req see
system.mem_ctrls.wrQLenPdf::48                      0                       # What write queue length does an incoming req see
system.mem_ctrls.wrQLenPdf::49                      0                       # What write queue length does an incoming req see
system.mem_ctrls.wrQLenPdf::50                      0                       # What write queue length does an incoming req see
system.mem_ctrls.wrQLenPdf::51                      0                       # What write queue length does an incoming req see
system.mem_ctrls.wrQLenPdf::52                      0                       # What write queue length does an incoming req see
system.mem_ctrls.wrQLenPdf::53                      0                       # What write queue length does an incoming req see
system.mem_ctrls.wrQLenPdf::54                      0                       # What write queue length does an incoming req see
system.mem_ctrls.wrQLenPdf::55                      0                       # What write queue length does an incoming req see
system.mem_ctrls.wrQLenPdf::56                      0                       # What write queue length does an incoming req see
system.mem_ctrls.wrQLenPdf::57                      0                       # What write queue length does an incoming req see
system.mem_ctrls.wrQLenPdf::58                      0                       # What write queue length does an incoming req see
system.mem_ctrls.wrQLenPdf::59                      0                       # What write queue length does an incoming req see
system.mem_ctrls.wrQLenPdf::60                      0                       # What write queue length does an incoming req see
system.mem_ctrls.wrQLenPdf::61                      0                       # What write queue length does an incoming req see
system.mem_ctrls.wrQLenPdf::62                      0                       # What write queue length does an incoming req see
system.mem_ctrls.wrQLenPdf::63                      0                       # What write queue length does an incoming req see
system.mem_ctrls.rdPerTurnAround::samples         4388                       # Reads before turning the bus around for writes
system.mem_ctrls.rdPerTurnAround::mean      42.902689                       # Reads before turning the bus around for writes
system.mem_ctrls.rdPerTurnAround::gmean     37.035590                       # Reads before turning the bus around for writes
system.mem_ctrls.rdPerTurnAround::stdev    124.940168                       # Reads before turning the bus around for writes
system.mem_ctrls.rdPerTurnAround::0-255          4369     99.57%     99.57% # Reads before turning the bus around for writes
system.mem_ctrls.rdPerTurnAround::256-511           13      0.30%     99.86% # Reads before turning the bus around for writes
system.mem_ctrls.rdPerTurnAround::512-767            4      0.09%     99.95% # Reads before turning the bus around for writes
system.mem_ctrls.rdPerTurnAround::5120-5375            1      0.02%     99.98% # Reads before turning the bus around for writes
system.mem_ctrls.rdPerTurnAround::6144-6399            1      0.02%    100.00% # Reads before turning the bus around for writes
system.mem_ctrls.rdPerTurnAround::total          4388                       # Reads before turning the bus around for writes
system.mem_ctrls.wrPerTurnAround::samples         4388                       # Writes before turning the bus around for reads
system.mem_ctrls.wrPerTurnAround::mean      17.689608                       # Writes before turning the bus around for reads
system.mem_ctrls.wrPerTurnAround::gmean     17.672357                       # Writes before turning the bus around for reads
system.mem_ctrls.wrPerTurnAround::stdev      0.762592                       # Writes before turning the bus around for reads
system.mem_ctrls.wrPerTurnAround::16              716     16.32%     16.32% # Writes before turning the bus around for reads
system.mem_ctrls.wrPerTurnAround::17               14      0.32%     16.64% # Writes before turning the bus around for reads
system.mem_ctrls.wrPerTurnAround::18             3580     81.59%     98.22% # Writes before turning the bus around for reads
system.mem_ctrls.wrPerTurnAround::19               72      1.64%     99.86% # Writes before turning the bus around for reads
system.mem_ctrls.wrPerTurnAround::20                6      0.14%    100.00% # Writes before turning the bus around for reads
system.mem_ctrls.wrPerTurnAround::total          4388                       # Writes before turning the bus around for reads
system.mem_ctrls.bytesReadWrQ                    4736                       # Total number of bytes read from write queue
system.mem_ctrls.bytesReadSys                 6026976                       # Total read bytes from the system interface side
system.mem_ctrls.bytesWrittenSys              4665184                       # Total written bytes from the system interface side
system.mem_ctrls.avgRdBWSys                     43.88                       # Average system read bandwidth in MiByte/s
system.mem_ctrls.avgWrBWSys                     33.96                       # Average system write bandwidth in MiByte/s
system.mem_ctrls.totGap                  137362924500                       # Total gap between requests
system.mem_ctrls.avgGap                     411106.23                       # Average gap between requests
system.mem_ctrls.requestorReadBytes::.cpu.inst       126368                       # Per-requestor bytes read from memory
[...]
system.mem_ctrls.dram.bw_total::.cpu.data     42956332                       # Total bandwidth to/from this memory (bytes/s)
system.mem_ctrls.dram.bw_total::total        77838754                       # Total bandwidth to/from this memory (bytes/s)
system.mem_ctrls.dram.readBursts               188269                       # Number of DRAM read bursts
system.mem_ctrls.dram.writeBursts               77622                       # Number of DRAM write bursts
system.mem_ctrls.dram.perBankRdBursts::0        12503                       # Per bank write bursts
system.mem_ctrls.dram.perBankRdBursts::1        12265                       # Per bank write bursts
system.mem_ctrls.dram.perBankRdBursts::2        11859                       # Per bank write bursts
system.mem_ctrls.dram.perBankRdBursts::3        12616                       # Per bank write bursts
system.mem_ctrls.dram.perBankRdBursts::4        11522                       # Per bank write bursts
system.mem_ctrls.dram.perBankRdBursts::5        11357                       # Per bank write bursts
system.mem_ctrls.dram.perBankRdBursts::6        11381                       # Per bank write bursts
system.mem_ctrls.dram.perBankRdBursts::7        11729                       # Per bank write bursts
system.mem_ctrls.dram.perBankRdBursts::8        11767                       # Per bank write bursts
system.mem_ctrls.dram.perBankRdBursts::9        11605                       # Per bank write bursts
system.mem_ctrls.dram.perBankRdBursts::10        12188                       # Per bank write bursts
system.mem_ctrls.dram.perBankRdBursts::11        11967                       # Per bank write bursts
system.mem_ctrls.dram.perBankRdBursts::12        11292                       # Per bank write bursts
system.mem_ctrls.dram.perBankRdBursts::13        11019                       # Per bank write bursts
system.mem_ctrls.dram.perBankRdBursts::14        11362                       # Per bank write bursts
system.mem_ctrls.dram.perBankRdBursts::15        11837                       # Per bank write bursts
system.mem_ctrls.dram.perBankWrBursts::0         5131                       # Per bank write bursts
system.mem_ctrls.dram.perBankWrBursts::1         4935                       # Per bank write bursts
system.mem_ctrls.dram.perBankWrBursts::2         4908                       # Per bank write bursts
system.mem_ctrls.dram.perBankWrBursts::3         5116                       # Per bank write bursts
system.mem_ctrls.dram.perBankWrBursts::4         4692                       # Per bank write bursts
system.mem_ctrls.dram.perBankWrBursts::5         4709                       # Per bank write bursts
system.mem_ctrls.dram.perBankWrBursts::6         4992                       # Per bank write bursts
system.mem_ctrls.dram.perBankWrBursts::7         4614                       # Per bank write bursts
system.mem_ctrls.dram.perBankWrBursts::8         4972                       # Per bank write bursts
system.mem_ctrls.dram.perBankWrBursts::9         4596                       # Per bank write bursts
system.mem_ctrls.dram.perBankWrBursts::10         4891                       # Per bank write bursts
system.mem_ctrls.dram.perBankWrBursts::11         5104                       # Per bank write bursts
system.mem_ctrls.dram.perBankWrBursts::12         4903                       # Per bank write bursts
system.mem_ctrls.dram.perBankWrBursts::13         4600                       # Per bank write bursts
system.mem_ctrls.dram.perBankWrBursts::14         4731                       # Per bank write bursts
system.mem_ctrls.dram.perBankWrBursts::15         4728                       # Per bank write bursts
system.mem_ctrls.dram.totQLat              2194194500                       # Total ticks spent queuing
system.mem_ctrls.dram.totBusLat             941345000                       # Total ticks spent in databus transfers
system.mem_ctrls.dram.totMemAccLat         5724238250                       # Total ticks spent from burst creation until serviced by the DRAM
system.mem_ctrls.dram.avgQLat                11654.57                       # Average queueing delay per DRAM burst
system.mem_ctrls.dram.avgBusLat               5000.00                       # Average bus latency per DRAM burst
system.mem_ctrls.dram.avgMemAccLat           30404.57                       # Average memory access latency per DRAM burst
system.mem_ctrls.dram.readRowHits              121188                       # Number of row buffer hits during reads
system.mem_ctrls.dram.writeRowHits              68018                       # Number of row buffer hits during writes
system.mem_ctrls.dram.readRowHitRate            64.37                       # Row buffer hit rate for reads
system.mem_ctrls.dram.writeRowHitRate           87.63                       # Row buffer hit rate for writes
system.mem_ctrls.dram.bytesPerActivate::samples        76677                       # Bytes accessed per row activation
system.mem_ctrls.dram.bytesPerActivate::mean   221.895379                       # Bytes accessed per row activation
system.mem_ctrls.dram.bytesPerActivate::gmean   125.638713                       # Bytes accessed per row activation
system.mem_ctrls.dram.bytesPerActivate::stdev   282.140598                       # Bytes accessed per row activation
system.mem_ctrls.dram.bytesPerActivate::0-127        47578     62.05%     62.05% # Bytes accessed per row activation
system.mem_ctrls.dram.bytesPerActivate::128-255         6446      8.41%     70.46% # Bytes accessed per row activation
system.mem_ctrls.dram.bytesPerActivate::256-383         9926     12.95%     83.40% # Bytes accessed per row activation
system.mem_ctrls.dram.bytesPerActivate::384-511         1488      1.94%     85.34% # Bytes accessed per row activation
system.mem_ctrls.dram.bytesPerActivate::512-639         1420      1.85%     87.19% # Bytes accessed per row activation
system.mem_ctrls.dram.bytesPerActivate::640-767         2659      3.47%     90.66% # Bytes accessed per row activation
system.mem_ctrls.dram.bytesPerActivate::768-895         1060      1.38%     92.04% # Bytes accessed per row activation
system.mem_ctrls.dram.bytesPerActivate::896-1023         1162      1.52%     93.56% # Bytes accessed per row activation
system.mem_ctrls.dram.bytesPerActivate::1024-1151         4938      6.44%    100.00% # Bytes accessed per row activation
system.mem_ctrls.dram.bytesPerActivate::total        76677                       # Bytes accessed per row activation
system.mem_ctrls.dram.bytesRead              12049216                       # Total number of bytes read from DRAM
system.mem_ctrls.dram.bytesWritten            4967808                       # Total number of bytes written to DRAM
system.mem_ctrls.dram.avgRdBW               87.718100                       # Average DRAM read bandwidth in MiBytes/s
system.mem_ctrls.dram.avgWrBW               36.165563                       # Average DRAM write bandwidth in MiBytes/s
system.mem_ctrls.dram.peakBW                 12800.00                       # Theoretical peak bandwidth in MiByte/s
system.mem_ctrls.dram.busUtil                    0.97                       # Data bus utilization in percentage
system.mem_ctrls.dram.busUtilRead                0.69                       # Data bus utilization in percentage for reads
system.mem_ctrls.dram.busUtilWrite               0.28                       # Data bus utilization in percentage for writes
system.mem_ctrls.dram.pageHitRate               71.16                       # Row buffer hit rate, read and write combined
system.mem_ctrls.dram.power_state.pwrStateResidencyTicks::UNDEFINED 137362939500                       # Cumulative time (in ticks) in various power states
system.mem_ctrls.dram.rank0.actEnergy       283600800                       # Energy for activate commands per rank (pJ)
system.mem_ctrls.dram.rank0.preEnergy       150722220                       # Energy for precharge commands per rank (pJ)
system.mem_ctrls.dram.rank0.readEnergy      679956480                       # Energy for read commands per rank (pJ)
system.mem_ctrls.dram.rank0.writeEnergy     204086340                       # Energy for write commands per rank (pJ)
system.mem_ctrls.dram.rank0.refreshEnergy 10842864240.000002                       # Energy for refresh commands per rank (pJ)
system.mem_ctrls.dram.rank0.actBackEnergy  24370481670                       # Energy for active background per rank (pJ)
system.mem_ctrls.dram.rank0.preBackEnergy  32224858080                       # Energy for precharge background per rank (pJ)
system.mem_ctrls.dram.rank0.actPowerDownEnergy            0                       # Energy for active power-down per rank (pJ)
system.mem_ctrls.dram.rank0.prePowerDownEnergy            0                       # Energy for precharge power-down per rank (pJ)
system.mem_ctrls.dram.rank0.selfRefreshEnergy            0                       # Energy for self refresh per rank (pJ)
system.mem_ctrls.dram.rank0.totalEnergy   68756569830                       # Total energy per rank (pJ)
system.mem_ctrls.dram.rank0.averagePower   500.546727                       # Core power per rank (mW)
system.mem_ctrls.dram.rank0.totalIdleTime            0                       # Total Idle time Per DRAM Rank
system.mem_ctrls.dram.rank0.pwrStateTime::IDLE  83399437750                       # Time in different power states
system.mem_ctrls.dram.rank0.pwrStateTime::REF   4586660000                       # Time in different power states
system.mem_ctrls.dram.rank0.pwrStateTime::SREF            0                       # Time in different power states
system.mem_ctrls.dram.rank0.pwrStateTime::PRE_PDN            0                       # Time in different power states
system.mem_ctrls.dram.rank0.pwrStateTime::ACT  49376841750                       # Time in different power states
system.mem_ctrls.dram.rank0.pwrStateTime::ACT_PDN            0                       # Time in different power states
system.mem_ctrls.dram.rank1.actEnergy       263930100                       # Energy for activate commands per rank (pJ)
system.mem_ctrls.dram.rank1.preEnergy       140266995                       # Energy for precharge commands per rank (pJ)
system.mem_ctrls.dram.rank1.readEnergy      664284180                       # Energy for read commands per rank (pJ)
system.mem_ctrls.dram.rank1.writeEnergy     201100500                       # Energy for write commands per rank (pJ)
system.mem_ctrls.dram.rank1.refreshEnergy 10842864240.000002                       # Energy for refresh commands per rank (pJ)
system.mem_ctrls.dram.rank1.actBackEnergy  24172423770                       # Energy for active background per rank (pJ)
system.mem_ctrls.dram.rank1.preBackEnergy  32391643680                       # Energy for precharge background per rank (pJ)
system.mem_ctrls.dram.rank1.actPowerDownEnergy            0                       # Energy for active power-down per rank (pJ)
system.mem_ctrls.dram.rank1.prePowerDownEnergy            0                       # Energy for precharge power-down per rank (pJ)
system.mem_ctrls.dram.rank1.selfRefreshEnergy            0                       # Energy for self refresh per rank (pJ)
system.mem_ctrls.dram.rank1.totalEnergy   68676513465                       # Total energy per rank (pJ)
system.mem_ctrls.dram.rank1.averagePower   499.963918                       # Core power per rank (mW)
system.mem_ctrls.dram.rank1.totalIdleTime            0                       # Total Idle time Per DRAM Rank
system.mem_ctrls.dram.rank1.pwrStateTime::IDLE  83787336000                       # Time in different power states
system.mem_ctrls.dram.rank1.pwrStateTime::REF   4586660000                       # Time in different power states
system.mem_ctrls.dram.rank1.pwrStateTime::SREF            0                       # Time in different power states
system.mem_ctrls.dram.rank1.pwrStateTime::PRE_PDN            0                       # Time in different power states
system.mem_ctrls.dram.rank1.pwrStateTime::ACT  48988943500                       # Time in different power states
system.mem_ctrls.dram.rank1.pwrStateTime::ACT_PDN            0                       # Time in different power states
system.mem_ctrls.power_state.pwrStateResidencyTicks::UNDEFINED 137362939500                       # Cumulative time (in ticks) in various power states
system.membus.trans_dist::ReadResp              77692                       # Transaction distribution
system.membus.trans_dist::WritebackDirty       145787                       # Transaction distribution
system.membus.trans_dist::CleanEvict            33409                       # Transaction distribution
system.membus.trans_dist::ReadExReq            110651                       # Transaction distribution
system.membus.trans_dist::ReadExResp           110651                       # Transaction distribution
system.membus.trans_dist::ReadSharedReq         77692                       # Transaction distribution
system.membus.pkt_count_system.l2.mem_side_port::system.mem_ctrls.port       555882                       # Packet count per connected requestor and responder (bytes)
system.membus.pkt_count_system.l2.mem_side_port::total       555882                       # Packet count per connected requestor and responder (bytes)
system.membus.pkt_count::total                 555882                       # Packet count per connected requestor and responder (bytes)
system.membus.pkt_size_system.l2.mem_side_port::system.mem_ctrls.port     10692160                       # Cumulative packet size per connected requestor and responder (bytes)
system.membus.pkt_size_system.l2.mem_side_port::total     10692160                       # Cumulative packet size per connected requestor and responder (bytes)
system.membus.pkt_size::total                10692160                       # Cumulative packet size per connected requestor and responder (bytes)
system.membus.snoops                                0                       # Total snoops (count)
system.membus.snoopTraffic                          0                       # Total snoop traffic (bytes)
system.membus.snoop_fanout::samples            188343                       # Request fanout histogram
system.membus.snoop_fanout::mean                    0                       # Request fanout histogram
system.membus.snoop_fanout::stdev                   0                       # Request fanout histogram
system.membus.snoop_fanout::underflows              0      0.00%      0.00% # Request fanout histogram
system.membus.snoop_fanout::0                  188343    100.00%    100.00% # Request fanout histogram
system.membus.snoop_fanout::1                       0      0.00%    100.00% # Request fanout histogram
system.membus.snoop_fanout::overflows               0      0.00%    100.00% # Request fanout histogram
system.membus.snoop_fanout::min_value               0                       # Request fanout histogram
system.membus.snoop_fanout::max_value               0                       # Request fanout histogram
system.membus.snoop_fanout::total              188343                       # Request fanout histogram
system.membus.power_state.pwrStateResidencyTicks::UNDEFINED 137362939500                       # Cumulative time (in ticks) in various power states
system.membus.reqLayer2.occupancy           659153000                       # Layer occupancy (ticks)
system.membus.reqLayer2.utilization               0.5                       # Layer utilization (%)
system.membus.respLayer1.occupancy          638481750                       # Layer occupancy (ticks)
system.membus.respLayer1.utilization              0.5                       # Layer utilization (%)
system.tol2bus.trans_dist::ReadResp             84190                       # Transaction distribution
system.tol2bus.trans_dist::WritebackDirty       299538                       # Transaction distribution
system.tol2bus.trans_dist::WritebackClean          869                       # Transaction distribution
system.tol2bus.trans_dist::CleanEvict          210042                       # Transaction distribution
system.tol2bus.trans_dist::ReadExReq           111397                       # Transaction distribution
system.tol2bus.trans_dist::ReadExResp          111397                       # Transaction distribution
system.tol2bus.trans_dist::ReadCleanReq          3974                       # Transaction distribution
system.tol2bus.trans_dist::ReadSharedReq        80216                       # Transaction distribution
system.tol2bus.pkt_count_system.cpu.icache.mem_side_port::system.l2.cpu_side_port         8817                       # Packet count per connected requestor and responder (bytes)
system.tol2bus.pkt_count_system.cpu.dcache.mem_side_port::system.l2.cpu_side_port       570743                       # Packet count per connected requestor and responder (bytes)
system.tol2bus.pkt_count::total                579560                       # Packet count per connected requestor and responder (bytes)
system.tol2bus.pkt_size_system.cpu.icache.mem_side_port::system.l2.cpu_side_port       154976                       # Cumulative packet size per connected requestor and responder (bytes)
system.tol2bus.pkt_size_system.cpu.dcache.mem_side_port::system.l2.cpu_side_port     11051648                       # Cumulative packet size per connected requestor and responder (bytes)
system.tol2bus.pkt_size::total               11206624                       # Cumulative packet size per connected requestor and responder (bytes)
system.tol2bus.snoops                          322063                       # Total snoops (count)
system.tol2bus.snoopTraffic                   4665184                       # Total snoop traffic (bytes)
system.tol2bus.snoop_fanout::samples           517650                       # Request fanout histogram
system.tol2bus.snoop_fanout::mean            0.324810                       # Request fanout histogram
system.tol2bus.snoop_fanout::stdev           0.468304                       # Request fanout histogram
system.tol2bus.snoop_fanout::underflows             0      0.00%      0.00% # Request fanout histogram
system.tol2bus.snoop_fanout::0                 349512     67.52%     67.52% # Request fanout histogram
system.tol2bus.snoop_fanout::1                 168138     32.48%    100.00% # Request fanout histogram
system.tol2bus.snoop_fanout::2                      0      0.00%    100.00% # Request fanout histogram
system.tol2bus.snoop_fanout::3                      0      0.00%    100.00% # Request fanout histogram
system.tol2bus.snoop_fanout::4                      0      0.00%    100.00% # Request fanout histogram
system.tol2bus.snoop_fanout::overflows              0      0.00%    100.00% # Request fanout histogram
system.tol2bus.snoop_fanout::min_value              0                       # Request fanout histogram
system.tol2bus.snoop_fanout::max_value              1                       # Request fanout histogram
system.tol2bus.snoop_fanout::total             517650                       # Request fanout histogram
system.tol2bus.power_state.pwrStateResidencyTicks::UNDEFINED 137362939500                       # Cumulative time (in ticks) in various power states
system.tol2bus.reqLayer0.occupancy          269296500                       # Layer occupancy (ticks)
system.tol2bus.reqLayer0.utilization              0.2                       # Layer utilization (%)
system.tol2bus.respLayer0.occupancy           3974000                       # Layer occupancy (ticks)
system.tol2bus.respLayer0.utilization             0.0                       # Layer utilization (%)
system.tol2bus.respLayer1.occupancy         191613000                       # Layer occupancy (ticks)
system.tol2bus.respLayer1.utilization             0.1                       # Layer utilization (%)
system.voltage_domain.voltage                       1                       # Voltage in Volts

---------- End Simulation Statistics   ----------
