
---------- Begin Simulation Statistics ----------
final_tick                               137359459500                       # Number of ticks from beginning of simulation (restored from checkpoints and never reset)
host_inst_rate                                 506629                       # Simulator instruction rate (inst/s)
host_mem_usage                                 715696                       # Number of bytes of host memory used
host_op_rate                                   775012                       # Simulator op (including micro ops) rate (op/s)
host_seconds                                   125.21                       # Real time elapsed on the host
host_tick_rate                             1096998674                       # Simulator tick rate (ticks/s)
sim_freq                                 1000000000000                       # Frequency of simulated ticks
sim_insts                                    63436878                       # Number of instructions simulated
sim_ops                                      97042210                       # Number of ops (including micro ops) simulated
sim_seconds                                  0.137359                       # Number of seconds simulated
sim_ticks                                137359459500                       # Number of ticks simulated
system.cpu.Branches                           7714393                       # Number of branches fetched
system.cpu.committedInsts                    63436878                       # Number of instructions committed
system.cpu.committedOps                      97042210                       # Number of ops (including micro ops) committed
system.cpu.idle_fraction                     0.000000                       # Percentage of idle cycles
system.cpu.not_idle_fraction                 1.000000                       # Percentage of non-idle cycles
system.cpu.numCycles                        274718919                       # number of cpu cycles simulated
system.cpu.numWorkItemsCompleted                    0                       # number of work items this cpu completed
system.cpu.numWorkItemsStarted                      0                       # number of work items this cpu started
system.cpu.num_busy_cycles               274718918.998000                       # Number of busy cycles
system.cpu.num_cc_register_reads             29902185                       # number of times the CC registers were read
system.cpu.num_cc_register_writes            27168373                       # number of times the CC registers were written
system.cpu.num_conditional_control_insts      4234783                       # number of instructions that are conditional controls
system.cpu.num_fp_alu_accesses                  85206                       # Number of float alu accesses
system.cpu.num_fp_insts                         85206                       # number of float instructions
system.cpu.num_fp_register_reads               119500                       # number of times the floating registers were read
system.cpu.num_fp_register_writes               63458                       # number of times the floating registers were written
system.cpu.num_func_calls                     1924148                       # number of times a function call or return occured
system.cpu.num_idle_cycles                   0.002000                       # Number of idle cycles
system.cpu.num_int_alu_accesses              95088667                       # Number of integer alu accesses
system.cpu.num_int_insts                     95088667                       # number of integer instructions
system.cpu.num_int_register_reads           214307208                       # number of times the integer registers were read
system.cpu.num_int_register_writes           77409627                       # number of times the integer registers were written
system.cpu.num_load_insts                    26073751                       # Number of load instructions
system.cpu.num_mem_refs                      36099173                       # number of memory refs
system.cpu.num_store_insts                   10025422                       # Number of store instructions
system.cpu.num_vec_alu_accesses                     0                       # Number of vector alu accesses
system.cpu.num_vec_insts                            0                       # number of vector instructions
system.cpu.num_vec_register_reads                   0                       # number of times the vector registers were read
system.cpu.num_vec_register_writes                  0                       # number of times the vector registers were written
system.cpu.op_class::No_OpClass                976243      1.01%      1.01% # Class of executed instruction
system.cpu.op_class::IntAlu                  59879192     61.70%     62.71% # Class of executed instruction
system.cpu.op_class::IntMult                       74      0.00%     62.71% # Class of executed instruction
system.cpu.op_class::IntDiv                     36240      0.04%     62.75% # Class of executed instruction
system.cpu.op_class::FloatAdd                    5590      0.01%     62.75% # Class of executed instruction
system.cpu.op_class::FloatCmp                       0      0.00%     62.75% # Class of executed instruction
system.cpu.op_class::FloatCvt                    1232      0.00%     62.75% # Class of executed instruction
system.cpu.op_class::FloatMult                      0      0.00%     62.75% # Class of executed instruction
system.cpu.op_class::FloatMultAcc                   0      0.00%     62.75% # Class of executed instruction
system.cpu.op_class::FloatDiv                       0      0.00%     62.75% # Class of executed instruction
system.cpu.op_class::FloatMisc                      0      0.00%     62.75% # Class of executed instruction
system.cpu.op_class::FloatSqrt                      0      0.00%     62.75% # Class of executed instruction
system.cpu.op_class::SimdAdd                     6716      0.01%     62.76% # Class of executed instruction
system.cpu.op_class::SimdAddAcc                     0      0.00%     62.76% # Class of executed instruction
system.cpu.op_class::SimdAlu                    12162      0.01%     62.77% # Class of executed instruction
system.cpu.op_class::SimdCmp                        6      0.00%     62.77% # Class of executed instruction
system.cpu.op_class::SimdCvt                    13804      0.01%     62.79% # Class of executed instruction
system.cpu.op_class::SimdMisc                   12230      0.01%     62.80% # Class of executed instruction
system.cpu.op_class::SimdMult                       0      0.00%     62.80% # Class of executed instruction
system.cpu.op_class::SimdMultAcc                    0      0.00%     62.80% # Class of executed instruction
system.cpu.op_class::SimdShift                    436      0.00%     62.80% # Class of executed instruction
system.cpu.op_class::SimdShiftAcc                   0      0.00%     62.80% # Class of executed instruction
system.cpu.op_class::SimdDiv                        0      0.00%     62.80% # Class of executed instruction
system.cpu.op_class::SimdSqrt                       0      0.00%     62.80% # Class of executed instruction
system.cpu.op_class::SimdFloatAdd                  10      0.00%     62.80% # Class of executed instruction
system.cpu.op_class::SimdFloatAlu                   0      0.00%     62.80% # Class of executed instruction
system.cpu.op_class::SimdFloatCmp                   0      0.00%     62.80% # Class of executed instruction
system.cpu.op_class::SimdFloatCvt                  30      0.00%     62.80% # Class of executed instruction
system.cpu.op_class::SimdFloatDiv                   0      0.00%     62.80% # Class of executed instruction
system.cpu.op_class::SimdFloatMisc                  0      0.00%     62.80% # Class of executed instruction
system.cpu.op_class::SimdFloatMult                 12      0.00%     62.80% # Class of executed instruction
system.cpu.op_class::SimdFloatMultAcc               0      0.00%     62.80% # Class of executed instruction
system.cpu.op_class::SimdFloatSqrt                  0      0.00%     62.80% # Class of executed instruction
system.cpu.op_class::SimdReduceAdd                  0      0.00%     62.80% # Class of executed instruction
system.cpu.op_class::SimdReduceAlu                  0      0.00%     62.80% # Class of executed instruction
system.cpu.op_class::SimdReduceCmp                  0      0.00%     62.80% # Class of executed instruction
system.cpu.op_class::SimdFloatReduceAdd             0      0.00%     62.80% # Class of executed instruction
system.cpu.op_class::SimdFloatReduceCmp             0      0.00%     62.80% # Class of executed instruction
system.cpu.op_class::SimdAes                        0      0.00%     62.80% # Class of executed instruction
system.cpu.op_class::SimdAesMix                     0      0.00%     62.80% # Class of executed instruction
system.cpu.op_class::SimdSha1Hash                   0      0.00%     62.80% # Class of executed instruction
system.cpu.op_class::SimdSha1Hash2                  0      0.00%     62.80% # Class of executed instruction
system.cpu.op_class::SimdSha256Hash                 0      0.00%     62.80% # Class of executed instruction
system.cpu.op_class::SimdSha256Hash2                0      0.00%     62.80% # Class of executed instruction
system.cpu.op_class::SimdShaSigma2                  0      0.00%     62.80% # Class of executed instruction
system.cpu.op_class::SimdShaSigma3                  0      0.00%     62.80% # Class of executed instruction
system.cpu.op_class::SimdPredAlu                    0      0.00%     62.80% # Class of executed instruction
system.cpu.op_class::MemRead                 26056914     26.85%     89.65% # Class of executed instruction
system.cpu.op_class::MemWrite                10011984     10.32%     99.97% # Class of executed instruction
system.cpu.op_class::FloatMemRead               16837      0.02%     99.99% # Class of executed instruction
system.cpu.op_class::FloatMemWrite              13438      0.01%    100.00% # Class of executed instruction
system.cpu.op_class::IprAccess                      0      0.00%    100.00% # Class of executed instruction
system.cpu.op_class::InstPrefetch                   0      0.00%    100.00% # Class of executed instruction
system.cpu.op_class::total                   97043150                       # Class of executed instruction
system.cpu.workload.numSyscalls                   100                       # Number of system calls
system.membus.snoop_filter.hit_multi_requests            0                       # Number of requests hitting in the snoop filter with multiple (>1) holders of the requested data.
system.membus.snoop_filter.hit_multi_snoops            0                       # Number of snoops hitting in the snoop filter with multiple (>1) holders of the requested data.
system.membus.snoop_filter.hit_single_requests       181150                       # Number of requests hitting in the snoop filter with a single holder of the requested data.
system.membus.snoop_filter.hit_single_snoops            0                       # Number of snoops hitting in the snoop filter with a single holder of the requested data.
system.membus.snoop_filter.tot_requests        372350                       # Total number of requests made to the snoop filter.
system.membus.snoop_filter.tot_snoops               0                       # Total number of snoops made to the snoop filter.
system.tol2bus.snoop_filter.hit_multi_requests            0                       # Number of requests hitting in the snoop filter with multiple (>1) holders of the requested data.
system.tol2bus.snoop_filter.hit_multi_snoops            0                       # Number of snoops hitting in the snoop filter with multiple (>1) holders of the requested data.
system.tol2bus.snoop_filter.hit_single_requests       187525                       # Number of requests hitting in the snoop filter with a single holder of the requested data.
system.tol2bus.snoop_filter.hit_single_snoops       189751                       # Number of snoops hitting in the snoop filter with a single holder of the requested data.
system.tol2bus.snoop_filter.tot_requests       383063                       # Total number of requests made to the snoop filter.
system.tol2bus.snoop_filter.tot_snoops         189751                       # Total number of snoops made to the snoop filter.
system.clk_domain.clock                          1000                       # Clock period in ticks
system.cpu.dcache.demand_hits::.cpu.data     35939861                       # number of demand (read+write) hits
system.cpu.dcache.demand_hits::total         35939861                       # number of demand (read+write) hits
system.cpu.dcache.overall_hits::.cpu.data     35939861                       # number of overall hits
system.cpu.dcache.overall_hits::total        35939861                       # number of overall hits
system.cpu.dcache.demand_misses::.cpu.data       191613                       # number of demand (read+write) misses
system.cpu.dcache.demand_misses::total         191613                       # number of demand (read+write) misses
system.cpu.dcache.overall_misses::.cpu.data       191613                       # number of overall misses
system.cpu.dcache.overall_misses::total        191613                       # number of overall misses
system.cpu.dcache.demand_miss_latency::.cpu.data  15559196000                       # number of demand (read+write) miss cycles
system.cpu.dcache.demand_miss_latency::total  15559196000                       # number of demand (read+write) miss cycles
system.cpu.dcache.overall_miss_latency::.cpu.data  15559196000                       # number of overall miss cycles
system.cpu.dcache.overall_miss_latency::total  15559196000                       # number of overall miss cycles
system.cpu.dcache.demand_accesses::.cpu.data     36131474                       # number of demand (read+write) accesses
system.cpu.dcache.demand_accesses::total     36131474                       # number of demand (read+write) accesses
system.cpu.dcache.overall_accesses::.cpu.data     36131474                       # number of overall (read+write) accesses
system.cpu.dcache.overall_accesses::total     36131474                       # number of overall (read+write) accesses
system.cpu.dcache.demand_miss_rate::.cpu.data     0.005303                       # miss rate for demand accesses
system.cpu.dcache.demand_miss_rate::total     0.005303                       # miss rate for demand accesses
system.cpu.dcache.overall_miss_rate::.cpu.data     0.005303                       # miss rate for overall accesses
system.cpu.dcache.overall_miss_rate::total     0.005303                       # miss rate for overall accesses
system.cpu.dcache.demand_avg_miss_latency::.cpu.data 81201.150235                       # average overall miss latency
system.cpu.dcache.demand_avg_miss_latency::total 81201.150235                       # average overall miss latency
system.cpu.dcache.overall_avg_miss_latency::.cpu.data 81201.150235                       # average overall miss latency
system.cpu.dcache.overall_avg_miss_latency::total 81201.150235                       # average overall miss latency
system.cpu.dcache.blocked_cycles::no_mshrs            0                       # number of cycles access was blocked
system.cpu.dcache.blocked_cycles::no_targets            0                       # number of cycles access was blocked
system.cpu.dcache.blocked::no_mshrs                 0                       # number of cycles access was blocked
system.cpu.dcache.blocked::no_targets               0                       # number of cycles access was blocked
system.cpu.dcache.avg_blocked_cycles::no_mshrs          nan                       # average number of cycles each access was blocked
system.cpu.dcache.avg_blocked_cycles::no_targets          nan                       # average number of cycles each access was blocked
system.cpu.dcache.writebacks::.writebacks       153779                       # number of writebacks
system.cpu.dcache.writebacks::total            153779                       # number of writebacks
system.cpu.dcache.demand_mshr_misses::.cpu.data       191613                       # number of demand (read+write) MSHR misses
system.cpu.dcache.demand_mshr_misses::total       191613                       # number of demand (read+write) MSHR misses
system.cpu.dcache.overall_mshr_misses::.cpu.data       191613                       # number of overall MSHR misses
system.cpu.dcache.overall_mshr_misses::total       191613                       # number of overall MSHR misses
system.cpu.dcache.demand_mshr_miss_latency::.cpu.data  15367583000                       # number of demand (read+write) MSHR miss cycles
system.cpu.dcache.demand_mshr_miss_latency::total  15367583000                       # number of demand (read+write) MSHR miss cycles
system.cpu.dcache.overall_mshr_miss_latency::.cpu.data  15367583000                       # number of overall MSHR miss cycles
system.cpu.dcache.overall_mshr_miss_latency::total  15367583000                       # number of overall MSHR miss cycles
system.cpu.dcache.demand_mshr_miss_rate::.cpu.data     0.005303                       # mshr miss rate for demand accesses
system.cpu.dcache.demand_mshr_miss_rate::total     0.005303                       # mshr miss rate for demand accesses
system.cpu.dcache.overall_mshr_miss_rate::.cpu.data     0.005303                       # mshr miss rate for overall accesses
system.cpu.dcache.overall_mshr_miss_rate::total     0.005303                       # mshr miss rate for overall accesses
system.cpu.dcache.demand_avg_mshr_miss_latency::.cpu.data 80201.150235                       # average overall mshr miss latency
system.cpu.dcache.demand_avg_mshr_miss_latency::total 80201.150235                       # average overall mshr miss latency
system.cpu.dcache.overall_avg_mshr_miss_latency::.cpu.data 80201.150235                       # average overall mshr miss latency
system.cpu.dcache.overall_avg_mshr_miss_latency::total 80201.150235                       # average overall mshr miss latency
system.cpu.dcache.replacements                 187517                       # number of replacements
system.cpu.dcache.ReadReq_hits::.cpu.data     25993655                       # number of ReadReq hits
system.cpu.dcache.ReadReq_hits::total        25993655                       # number of ReadReq hits
system.cpu.dcache.ReadReq_misses::.cpu.data        80216                       # number of ReadReq misses
system.cpu.dcache.ReadReq_misses::total         80216                       # number of ReadReq misses
system.cpu.dcache.ReadReq_miss_latency::.cpu.data   6895522500                       # number of ReadReq miss cycles
system.cpu.dcache.ReadReq_miss_latency::total   6895522500                       # number of ReadReq miss cycles
system.cpu.dcache.ReadReq_accesses::.cpu.data     26073871                       # number of ReadReq accesses(hits+misses)
system.cpu.dcache.ReadReq_accesses::total     26073871                       # number of ReadReq accesses(hits+misses)
system.cpu.dcache.ReadReq_miss_rate::.cpu.data     0.003076                       # miss rate for ReadReq accesses
system.cpu.dcache.ReadReq_miss_rate::total     0.003076                       # miss rate for ReadReq accesses
system.cpu.dcache.ReadReq_avg_miss_latency::.cpu.data 85961.934028                       # average ReadReq miss latency
system.cpu.dcache.ReadReq_avg_miss_latency::total 85961.934028                       # average ReadReq miss latency
system.cpu.dcache.ReadReq_mshr_misses::.cpu.data        80216                       # number of ReadReq MSHR misses
system.cpu.dcache.ReadReq_mshr_misses::total        80216                       # number of ReadReq MSHR misses
system.cpu.dcache.ReadReq_mshr_miss_latency::.cpu.data   6815306500                       # number of ReadReq MSHR miss cycles
system.cpu.dcache.ReadReq_mshr_miss_latency::total   6815306500                       # number of ReadReq MSHR miss cycles
system.cpu.dcache.ReadReq_mshr_miss_rate::.cpu.data     0.003076                       # mshr miss rate for ReadReq accesses
system.cpu.dcache.ReadReq_mshr_miss_rate::total     0.003076                       # mshr miss rate for ReadReq accesses
system.cpu.dcache.ReadReq_avg_mshr_miss_latency::.cpu.data 84961.934028                       # average ReadReq mshr miss latency
system.cpu.dcache.ReadReq_avg_mshr_miss_latency::total 84961.934028                       # average ReadReq mshr miss latency
system.cpu.dcache.WriteReq_hits::.cpu.data      9946206                       # number of WriteReq hits
system.cpu.dcache.WriteReq_hits::total        9946206                       # number of WriteReq hits
system.cpu.dcache.WriteReq_misses::.cpu.data       111397                       # number of WriteReq misses
system.cpu.dcache.WriteReq_misses::total       111397                       # number of WriteReq misses
system.cpu.dcache.WriteReq_miss_latency::.cpu.data   8663673500                       # number of WriteReq miss cycles
system.cpu.dcache.WriteReq_miss_latency::total   8663673500                       # number of WriteReq miss cycles
system.cpu.dcache.WriteReq_accesses::.cpu.data     10057603                       # number of WriteReq accesses(hits+misses)
system.cpu.dcache.WriteReq_accesses::total     10057603                       # number of WriteReq accesses(hits+misses)
system.cpu.dcache.WriteReq_miss_rate::.cpu.data     0.011076                       # miss rate for WriteReq accesses
system.cpu.dcache.WriteReq_miss_rate::total     0.011076                       # miss rate for WriteReq accesses
system.cpu.dcache.WriteReq_avg_miss_latency::.cpu.data 77772.951695                       # average WriteReq miss latency
system.cpu.dcache.WriteReq_avg_miss_latency::total 77772.951695                       # average WriteReq miss latency
system.cpu.dcache.WriteReq_mshr_misses::.cpu.data       111397                       # number of WriteReq MSHR misses
system.cpu.dcache.WriteReq_mshr_misses::total       111397                       # number of WriteReq MSHR misses
system.cpu.dcache.WriteReq_mshr_miss_latency::.cpu.data   8552276500                       # number of WriteReq MSHR miss cycles
system.cpu.dcache.WriteReq_mshr_miss_latency::total   8552276500                       # number of WriteReq MSHR miss cycles
system.cpu.dcache.WriteReq_mshr_miss_rate::.cpu.data     0.011076                       # mshr miss rate for WriteReq accesses
system.cpu.dcache.WriteReq_mshr_miss_rate::total     0.011076                       # mshr miss rate for WriteReq accesses
system.cpu.dcache.WriteReq_avg_mshr_miss_latency::.cpu.data 76772.951695                       # average WriteReq mshr miss latency
system.cpu.dcache.WriteReq_avg_mshr_miss_latency::total 76772.951695                       # average WriteReq mshr miss latency
system.cpu.dcache.power_state.pwrStateResidencyTicks::UNDEFINED 137359459500                       # Cumulative time (in ticks) in various power states
system.cpu.dcache.tags.tagsinuse          4081.784307                       # Cycle average of tags in use
system.cpu.dcache.tags.total_refs            36131474                       # Total number of references to valid blocks.
system.cpu.dcache.tags.sampled_refs            191613                       # Sample count of references to valid blocks.
system.cpu.dcache.tags.avg_refs            188.564836                       # Average number of references to valid blocks.
system.cpu.dcache.tags.warmup_cycle            174500                       # Cycle when the warmup percentage was hit.
system.cpu.dcache.tags.occ_blocks::.cpu.data  4081.784307                       # Average occupied blocks per requestor
system.cpu.dcache.tags.occ_percent::.cpu.data     0.996529                       # Average percentage of cache occupancy
system.cpu.dcache.tags.occ_percent::total     0.996529                       # Average percentage of cache occupancy
system.cpu.dcache.tags.occ_task_id_blocks::1024         4096                       # Occupied blocks per task id
system.cpu.dcache.tags.age_task_id_blocks_1024::0           35                       # Occupied blocks per task id
system.cpu.dcache.tags.age_task_id_blocks_1024::1          414                       # Occupied blocks per task id
system.cpu.dcache.tags.age_task_id_blocks_1024::2         3644                       # Occupied blocks per task id
system.cpu.dcache.tags.age_task_id_blocks_1024::3            3                       # Occupied blocks per task id
system.cpu.dcache.tags.occ_task_id_percent::1024            1                       # Percentage of cache occupancy per task id
system.cpu.dcache.tags.tag_accesses          72454561                       # Number of tag accesses
system.cpu.dcache.tags.data_accesses         72454561                       # Number of data accesses
system.cpu.dcache.tags.power_state.pwrStateResidencyTicks::UNDEFINED 137359459500                       # Cumulative time (in ticks) in various power states
system.cpu.dtb.rdAccesses                    26074093                       # TLB accesses on read requests
system.cpu.dtb.wrAccesses                    10058351                       # TLB accesses on write requests
system.cpu.dtb.rdMisses                          1987                       # TLB misses on read requests
system.cpu.dtb.wrMisses                          1560                       # TLB misses on write requests
system.cpu.dtb.walker.power_state.pwrStateResidencyTicks::UNDEFINED 137359459500                       # Cumulative time (in ticks) in various power states
system.cpu.dtb_walker_cache.blocked_cycles::no_mshrs            0                       # number of cycles access was blocked
system.cpu.dtb_walker_cache.blocked_cycles::no_targets            0                       # number of cycles access was blocked
system.cpu.dtb_walker_cache.blocked::no_mshrs            0                       # number of cycles access was blocked
system.cpu.dtb_walker_cache.blocked::no_targets            0                       # number of cycles access was blocked
system.cpu.dtb_walker_cache.avg_blocked_cycles::no_mshrs          nan                       # average number of cycles each access was blocked
system.cpu.dtb_walker_cache.avg_blocked_cycles::no_targets          nan                       # average number of cycles each access was blocked
system.cpu.dtb_walker_cache.replacements            0                       # number of replacements
system.cpu.dtb_walker_cache.power_state.pwrStateResidencyTicks::UNDEFINED 137359459500                       # Cumulative time (in ticks) in various power states
system.cpu.dtb_walker_cache.tags.tagsinuse            0                       # Cycle average of tags in use
system.cpu.dtb_walker_cache.tags.total_refs            0                       # Total number of references to valid blocks.
system.cpu.dtb_walker_cache.tags.sampled_refs            0                       # Sample count of references to valid blocks.
system.cpu.dtb_walker_cache.tags.avg_refs          nan                       # Average number of references to valid blocks.
system.cpu.dtb_walker_cache.tags.warmup_cycle            0                       # Cycle when the warmup percentage was hit.
system.cpu.dtb_walker_cache.tags.tag_accesses            0                       # Number of tag accesses
system.cpu.dtb_walker_cache.tags.data_accesses            0                       # Number of data accesses
system.cpu.dtb_walker_cache.tags.power_state.pwrStateResidencyTicks::UNDEFINED 137359459500                       # Cumulative time (in ticks) in various power states
system.cpu.icache.demand_hits::.cpu.inst     85584569                       # number of demand (read+write) hits
system.cpu.icache.demand_hits::total         85584569                       # number of demand (read+write) hits
system.cpu.icache.overall_hits::.cpu.inst     85584569                       # number of overall hits
system.cpu.icache.overall_hits::total        85584569                       # number of overall hits
system.cpu.icache.demand_misses::.cpu.inst         3925                       # number of demand (read+write) misses
system.cpu.icache.demand_misses::total           3925                       # number of demand (read+write) misses
system.cpu.icache.overall_misses::.cpu.inst         3925                       # number of overall misses
system.cpu.icache.overall_misses::total          3925                       # number of overall misses
system.cpu.icache.demand_miss_latency::.cpu.inst    310595500                       # number of demand (read+write) miss cycles
system.cpu.icache.demand_miss_latency::total    310595500                       # number of demand (read+write) miss cycles
system.cpu.icache.overall_miss_latency::.cpu.inst    310595500                       # number of overall miss cycles
system.cpu.icache.overall_miss_latency::total    310595500                       # number of overall miss cycles
system.cpu.icache.demand_accesses::.cpu.inst     85588494                       # number of demand (read+write) accesses
system.cpu.icache.demand_accesses::total     85588494                       # number of demand (read+write) accesses
system.cpu.icache.overall_accesses::.cpu.inst     85588494                       # number of overall (read+write) accesses
system.cpu.icache.overall_accesses::total     85588494                       # number of overall (read+write) accesses
system.cpu.icache.demand_miss_rate::.cpu.inst     0.000046                       # miss rate for demand accesses
system.cpu.icache.demand_miss_rate::total     0.000046                       # miss rate for demand accesses
system.cpu.icache.overall_miss_rate::.cpu.inst     0.000046                       # miss rate for overall accesses
system.cpu.icache.overall_miss_rate::total     0.000046                       # miss rate for overall accesses
system.cpu.icache.demand_avg_miss_latency::.cpu.inst 79132.611465                       # average overall miss latency
system.cpu.icache.demand_avg_miss_latency::total 79132.611465                       # average overall miss latency
system.cpu.icache.overall_avg_miss_latency::.cpu.inst 79132.611465                       # average overall miss latency
system.cpu.icache.overall_avg_miss_latency::total 79132.611465                       # average overall miss latency
system.cpu.icache.blocked_cycles::no_mshrs            0                       # number of cycles access was blocked
system.cpu.icache.blocked_cycles::no_targets            0                       # number of cycles access was blocked
system.cpu.icache.blocked::no_mshrs                 0                       # number of cycles access was blocked
system.cpu.icache.blocked::no_targets               0                       # number of cycles access was blocked
system.cpu.icache.avg_blocked_cycles::no_mshrs          nan                       # average number of cycles each access was blocked
system.cpu.icache.avg_blocked_cycles::no_targets          nan                       # average number of cycles each access was blocked
system.cpu.icache.writebacks::.writebacks            8                       # number of writebacks
system.cpu.icache.writebacks::total                 8                       # number of writebacks
system.cpu.icache.demand_mshr_misses::.cpu.inst         3925                       # number of demand (read+write) MSHR misses
system.cpu.icache.demand_mshr_misses::total         3925                       # number of demand (read+write) MSHR misses
system.cpu.icache.overall_mshr_misses::.cpu.inst         3925                       # number of overall MSHR misses
system.cpu.icache.overall_mshr_misses::total         3925                       # number of overall MSHR misses
system.cpu.icache.demand_mshr_miss_latency::.cpu.inst    306670500                       # number of demand (read+write) MSHR miss cycles
system.cpu.icache.demand_mshr_miss_latency::total    306670500                       # number of demand (read+write) MSHR miss cycles
system.cpu.icache.overall_mshr_miss_latency::.cpu.inst    306670500                       # number of overall MSHR miss cycles
system.cpu.icache.overall_mshr_miss_latency::total    306670500                       # number of overall MSHR miss cycles
system.cpu.icache.demand_mshr_miss_rate::.cpu.inst     0.000046                       # mshr miss rate for demand accesses
system.cpu.icache.demand_mshr_miss_rate::total     0.000046                       # mshr miss rate for demand accesses
system.cpu.icache.overall_mshr_miss_rate::.cpu.inst     0.000046                       # mshr miss rate for overall accesses
system.cpu.icache.overall_mshr_miss_rate::total     0.000046                       # mshr miss rate for overall accesses
system.cpu.icache.demand_avg_mshr_miss_latency::.cpu.inst 78132.611465                       # average overall mshr miss latency
system.cpu.icache.demand_avg_mshr_miss_latency::total 78132.611465                       # average overall mshr miss latency
system.cpu.icache.overall_avg_mshr_miss_latency::.cpu.inst 78132.611465                       # average overall mshr miss latency
system.cpu.icache.overall_avg_mshr_miss_latency::total 78132.611465                       # average overall mshr miss latency
system.cpu.icache.replacements                      8                       # number of replacements
system.cpu.icache.ReadReq_hits::.cpu.inst     85584569                       # number of ReadReq hits
system.cpu.icache.ReadReq_hits::total        85584569                       # number of ReadReq hits
system.cpu.icache.ReadReq_misses::.cpu.inst         3925                       # number of ReadReq misses
system.cpu.icache.ReadReq_misses::total          3925                       # number of ReadReq misses
system.cpu.icache.ReadReq_miss_latency::.cpu.inst    310595500                       # number of ReadReq miss cycles
system.cpu.icache.ReadReq_miss_latency::total    310595500                       # number of ReadReq miss cycles
system.cpu.icache.ReadReq_accesses::.cpu.inst     85588494                       # number of ReadReq accesses(hits+misses)
system.cpu.icache.ReadReq_accesses::total     85588494                       # number of ReadReq accesses(hits+misses)
system.cpu.icache.ReadReq_miss_rate::.cpu.inst     0.000046                       # miss rate for ReadReq accesses
system.cpu.icache.ReadReq_miss_rate::total     0.000046                       # miss rate for ReadReq accesses
system.cpu.icache.ReadReq_avg_miss_latency::.cpu.inst 79132.611465                       # average ReadReq miss latency
system.cpu.icache.ReadReq_avg_miss_latency::total 79132.611465                       # average ReadReq miss latency
system.cpu.icache.ReadReq_mshr_misses::.cpu.inst         3925                       # number of ReadReq MSHR misses
system.cpu.icache.ReadReq_mshr_misses::total         3925                       # number of ReadReq MSHR misses
system.cpu.icache.ReadReq_mshr_miss_latency::.cpu.inst    306670500                       # number of ReadReq MSHR miss cycles
system.cpu.icache.ReadReq_mshr_miss_latency::total    306670500                       # number of ReadReq MSHR miss cycles
system.cpu.icache.ReadReq_mshr_miss_rate::.cpu.inst     0.000046                       # mshr miss rate for ReadReq accesses
system.cpu.icache.ReadReq_mshr_miss_rate::total     0.000046                       # mshr miss rate for ReadReq accesses
system.cpu.icache.ReadReq_avg_mshr_miss_latency::.cpu.inst 78132.611465                       # average ReadReq mshr miss latency
system.cpu.icache.ReadReq_avg_mshr_miss_latency::total 78132.611465                       # average ReadReq mshr miss latency
system.cpu.icache.power_state.pwrStateResidencyTicks::UNDEFINED 137359459500                       # Cumulative time (in ticks) in various power states
system.cpu.icache.tags.tagsinuse          3172.471873                       # Cycle average of tags in use
system.cpu.icache.tags.total_refs            85588494                       # Total number of references to valid blocks.
system.cpu.icache.tags.sampled_refs              3925                       # Sample count of references to valid blocks.
system.cpu.icache.tags.avg_refs          21805.985732                       # Average number of references to valid blocks.
system.cpu.icache.tags.warmup_cycle             87500                       # Cycle when the warmup percentage was hit.
system.cpu.icache.tags.occ_blocks::.cpu.inst  3172.471873                       # Average occupied blocks per requestor
system.cpu.icache.tags.occ_percent::.cpu.inst     0.193632                       # Average percentage of cache occupancy
system.cpu.icache.tags.occ_percent::total     0.193632                       # Average percentage of cache occupancy
system.cpu.icache.tags.occ_task_id_blocks::1024         3917                       # Occupied blocks per task id
system.cpu.icache.tags.age_task_id_blocks_1024::0           56                       # Occupied blocks per task id
system.cpu.icache.tags.age_task_id_blocks_1024::1          351                       # Occupied blocks per task id
system.cpu.icache.tags.age_task_id_blocks_1024::2           17                       # Occupied blocks per task id
system.cpu.icache.tags.age_task_id_blocks_1024::3          218                       # Occupied blocks per task id
system.cpu.icache.tags.age_task_id_blocks_1024::4         3275                       # Occupied blocks per task id
system.cpu.icache.tags.occ_task_id_percent::1024     0.239075                       # Percentage of cache occupancy per task id
system.cpu.icache.tags.tag_accesses         171180913                       # Number of tag accesses
system.cpu.icache.tags.data_accesses        171180913                       # Number of data accesses
system.cpu.icache.tags.power_state.pwrStateResidencyTicks::UNDEFINED 137359459500                       # Cumulative time (in ticks) in various power states
system.cpu.interrupts.clk_domain.clock           8000                       # Clock period in ticks
system.cpu.itb.rdAccesses                           0                       # TLB accesses on read requests
system.cpu.itb.wrAccesses                    85588623                       # TLB accesses on write requests
system.cpu.itb.rdMisses                             0                       # TLB misses on read requests
system.cpu.itb.wrMisses                           542                       # TLB misses on write requests
system.cpu.itb.walker.power_state.pwrStateResidencyTicks::UNDEFINED 137359459500                       # Cumulative time (in ticks) in various power states
system.cpu.itb_walker_cache.blocked_cycles::no_mshrs            0                       # number of cycles access was blocked
system.cpu.itb_walker_cache.blocked_cycles::no_targets            0                       # number of cycles access was blocked
system.cpu.itb_walker_cache.blocked::no_mshrs            0                       # number of cycles access was blocked
system.cpu.itb_walker_cache.blocked::no_targets            0                       # number of cycles access was blocked
system.cpu.itb_walker_cache.avg_blocked_cycles::no_mshrs          nan                       # average number of cycles each access was blocked
system.cpu.itb_walker_cache.avg_blocked_cycles::no_targets          nan                       # average number of cycles each access was blocked
system.cpu.itb_walker_cache.replacements            0                       # number of replacements
system.cpu.itb_walker_cache.power_state.pwrStateResidencyTicks::UNDEFINED 137359459500                       # Cumulative time (in ticks) in various power states
system.cpu.itb_walker_cache.tags.tagsinuse            0                       # Cycle average of tags in use
system.cpu.itb_walker_cache.tags.total_refs            0                       # Total number of references to valid blocks.
system.cpu.itb_walker_cache.tags.sampled_refs            0                       # Sample count of references to valid blocks.
system.cpu.itb_walker_cache.tags.avg_refs          nan                       # Average number of references to valid blocks.
system.cpu.itb_walker_cache.tags.warmup_cycle            0                       # Cycle when the warmup percentage was hit.
system.cpu.itb_walker_cache.tags.tag_accesses            0                       # Number of tag accesses
system.cpu.itb_walker_cache.tags.data_accesses            0                       # Number of data accesses
system.cpu.itb_walker_cache.tags.power_state.pwrStateResidencyTicks::UNDEFINED 137359459500                       # Cumulative time (in ticks) in various power states
system.cpu.power_state.pwrStateResidencyTicks::ON 137359459500                       # Cumulative time (in ticks) in various power states
system.cpu.thread_0.numInsts                        0                       # Number of Instructions committed
system.cpu.thread_0.numOps                          0                       # Number of Ops committed
system.cpu.thread_0.numMemRefs                      0                       # Number of Memory References
system.cpu_clk_domain.clock                       500                       # Clock period in ticks
system.cpu_voltage_domain.voltage                   1                       # Voltage in Volts
system.l2.demand_hits::.cpu.data                 4338                       # number of demand (read+write) hits
system.l2.demand_hits::total                     4338                       # number of demand (read+write) hits
system.l2.overall_hits::.cpu.data                4338                       # number of overall hits
system.l2.overall_hits::total                    4338                       # number of overall hits
system.l2.demand_misses::.cpu.inst               3925                       # number of demand (read+write) misses
system.l2.demand_misses::.cpu.data             187275                       # number of demand (read+write) misses
system.l2.demand_misses::total                 191200                       # number of demand (read+write) misses
system.l2.overall_misses::.cpu.inst              3925                       # number of overall misses
system.l2.overall_misses::.cpu.data            187275                       # number of overall misses
system.l2.overall_misses::total                191200                       # number of overall misses
system.l2.demand_miss_latency::.cpu.inst    300783000                       # number of demand (read+write) miss cycles
system.l2.demand_miss_latency::.cpu.data  15034564500                       # number of demand (read+write) miss cycles
system.l2.demand_miss_latency::total      15335347500                       # number of demand (read+write) miss cycles
system.l2.overall_miss_latency::.cpu.inst    300783000                       # number of overall miss cycles
system.l2.overall_miss_latency::.cpu.data  15034564500                       # number of overall miss cycles
system.l2.overall_miss_latency::total     15335347500                       # number of overall miss cycles
system.l2.demand_accesses::.cpu.inst             3925                       # number of demand (read+write) accesses
system.l2.demand_accesses::.cpu.data           191613                       # number of demand (read+write) accesses
system.l2.demand_accesses::total               195538                       # number of demand (read+write) accesses
system.l2.overall_accesses::.cpu.inst            3925                       # number of overall (read+write) accesses
system.l2.overall_accesses::.cpu.data          191613                       # number of overall (read+write) accesses
system.l2.overall_accesses::total              195538                       # number of overall (read+write) accesses
system.l2.demand_miss_rate::.cpu.inst               1                       # miss rate for demand accesses
system.l2.demand_miss_rate::.cpu.data        0.977361                       # miss rate for demand accesses
system.l2.demand_miss_rate::total            0.977815                       # miss rate for demand accesses
system.l2.overall_miss_rate::.cpu.inst              1                       # miss rate for overall accesses
system.l2.overall_miss_rate::.cpu.data       0.977361                       # miss rate for overall accesses
system.l2.overall_miss_rate::total           0.977815                       # miss rate for overall accesses
system.l2.demand_avg_miss_latency::.cpu.inst 76632.611465                       # average overall miss latency
system.l2.demand_avg_miss_latency::.cpu.data 80280.680817                       # average overall miss latency
system.l2.demand_avg_miss_latency::total 80205.792364                       # average overall miss latency
system.l2.overall_avg_miss_latency::.cpu.inst 76632.611465                       # average overall miss latency
system.l2.overall_avg_miss_latency::.cpu.data 80280.680817                       # average overall miss latency
system.l2.overall_avg_miss_latency::total 80205.792364                       # average overall miss latency
system.l2.blocked_cycles::no_mshrs                  0                       # number of cycles access was blocked
system.l2.blocked_cycles::no_targets                0                       # number of cycles access was blocked
system.l2.blocked::no_mshrs                         0                       # number of cycles access was blocked
system.l2.blocked::no_targets                       0                       # number of cycles access was blocked
system.l2.avg_blocked_cycles::no_mshrs            nan                       # average number of cycles each access was blocked
system.l2.avg_blocked_cycles::no_targets          nan                       # average number of cycles each access was blocked
system.l2.writebacks::.writebacks              147575                       # number of writebacks
system.l2.writebacks::total                    147575                       # number of writebacks
system.l2.demand_mshr_misses::.cpu.inst          3925                       # number of demand (read+write) MSHR misses
system.l2.demand_mshr_misses::.cpu.data        187275                       # number of demand (read+write) MSHR misses
system.l2.demand_mshr_misses::total            191200                       # number of demand (read+write) MSHR misses
system.l2.overall_mshr_misses::.cpu.inst         3925                       # number of overall MSHR misses
system.l2.overall_mshr_misses::.cpu.data       187275                       # number of overall MSHR misses
system.l2.overall_mshr_misses::total           191200                       # number of overall MSHR misses
system.l2.demand_mshr_miss_latency::.cpu.inst    261533000                       # number of demand (read+write) MSHR miss cycles
system.l2.demand_mshr_miss_latency::.cpu.data  13161814500                       # number of demand (read+write) MSHR miss cycles
system.l2.demand_mshr_miss_latency::total  13423347500                       # number of demand (read+write) MSHR miss cycles
system.l2.overall_mshr_miss_latency::.cpu.inst    261533000                       # number of overall MSHR miss cycles
system.l2.overall_mshr_miss_latency::.cpu.data  13161814500                       # number of overall MSHR miss cycles
system.l2.overall_mshr_miss_latency::total  13423347500                       # number of overall MSHR miss cycles
system.l2.demand_mshr_miss_rate::.cpu.inst            1                       # mshr miss rate for demand accesses
system.l2.demand_mshr_miss_rate::.cpu.data     0.977361                       # mshr miss rate for demand accesses
system.l2.demand_mshr_miss_rate::total       0.977815                       # mshr miss rate for demand accesses
system.l2.overall_mshr_miss_rate::.cpu.inst            1                       # mshr miss rate for overall accesses
system.l2.overall_mshr_miss_rate::.cpu.data     0.977361                       # mshr miss rate for overall accesses
system.l2.overall_mshr_miss_rate::total      0.977815                       # mshr miss rate for overall accesses
system.l2.demand_avg_mshr_miss_latency::.cpu.inst 66632.611465                       # average overall mshr miss latency
system.l2.demand_avg_mshr_miss_latency::.cpu.data 70280.680817                       # average overall mshr miss latency
system.l2.demand_avg_mshr_miss_latency::total 70205.792364                       # average overall mshr miss latency
system.l2.overall_avg_mshr_miss_latency::.cpu.inst 66632.611465                       # average overall mshr miss latency
system.l2.overall_avg_mshr_miss_latency::.cpu.data 70280.680817                       # average overall mshr miss latency
system.l2.overall_avg_mshr_miss_latency::total 70205.792364                       # average overall mshr miss latency
system.l2.replacements                         338433                       # number of replacements
system.l2.WritebackDirty_hits::.writebacks       153779                       # number of WritebackDirty hits
system.l2.WritebackDirty_hits::total           153779                       # number of WritebackDirty hits
system.l2.WritebackDirty_accesses::.writebacks       153779                       # number of WritebackDirty accesses(hits+misses)
system.l2.WritebackDirty_accesses::total       153779                       # number of WritebackDirty accesses(hits+misses)
system.l2.WritebackClean_hits::.writebacks            8                       # number of WritebackClean hits
system.l2.WritebackClean_hits::total                8                       # number of WritebackClean hits
system.l2.WritebackClean_accesses::.writebacks            8                       # number of WritebackClean accesses(hits+misses)
system.l2.WritebackClean_accesses::total            8                       # number of WritebackClean accesses(hits+misses)
system.l2.CleanEvict_mshr_misses::.writebacks        32468                       # number of CleanEvict MSHR misses
system.l2.CleanEvict_mshr_misses::total         32468                       # number of CleanEvict MSHR misses
system.l2.CleanEvict_mshr_miss_rate::.writebacks          inf                       # mshr miss rate for CleanEvict accesses
system.l2.CleanEvict_mshr_miss_rate::total          inf                       # mshr miss rate for CleanEvict accesses
system.l2.ReadExReq_hits::.cpu.data               795                       # number of ReadExReq hits
system.l2.ReadExReq_hits::total                   795                       # number of ReadExReq hits
system.l2.ReadExReq_misses::.cpu.data          110602                       # number of ReadExReq misses
system.l2.ReadExReq_misses::total              110602                       # number of ReadExReq misses
system.l2.ReadExReq_miss_latency::.cpu.data   8376832500                       # number of ReadExReq miss cycles
system.l2.ReadExReq_miss_latency::total    8376832500                       # number of ReadExReq miss cycles
system.l2.ReadExReq_accesses::.cpu.data        111397                       # number of ReadExReq accesses(hits+misses)
system.l2.ReadExReq_accesses::total            111397                       # number of ReadExReq accesses(hits+misses)
system.l2.ReadExReq_miss_rate::.cpu.data     0.992863                       # miss rate for ReadExReq accesses
system.l2.ReadExReq_miss_rate::total         0.992863                       # miss rate for ReadExReq accesses
system.l2.ReadExReq_avg_miss_latency::.cpu.data 75738.526428                       # average ReadExReq miss latency
system.l2.ReadExReq_avg_miss_latency::total 75738.526428                       # average ReadExReq miss latency
system.l2.ReadExReq_mshr_misses::.cpu.data       110602                       # number of ReadExReq MSHR misses
system.l2.ReadExReq_mshr_misses::total         110602                       # number of ReadExReq MSHR misses
system.l2.ReadExReq_mshr_miss_latency::.cpu.data   7270812500                       # number of ReadExReq MSHR miss cycles
system.l2.ReadExReq_mshr_miss_latency::total   7270812500                       # number of ReadExReq MSHR miss cycles
system.l2.ReadExReq_mshr_miss_rate::.cpu.data     0.992863                       # mshr miss rate for ReadExReq accesses
system.l2.ReadExReq_mshr_miss_rate::total     0.992863                       # mshr miss rate for ReadExReq accesses
system.l2.ReadExReq_avg_mshr_miss_latency::.cpu.data 65738.526428                       # average ReadExReq mshr miss latency
system.l2.ReadExReq_avg_mshr_miss_latency::total 65738.526428                       # average ReadExReq mshr miss latency
system.l2.ReadCleanReq_misses::.cpu.inst         3925                       # number of ReadCleanReq misses
system.l2.ReadCleanReq_misses::total             3925                       # number of ReadCleanReq misses
system.l2.ReadCleanReq_miss_latency::.cpu.inst    300783000                       # number of ReadCleanReq miss cycles
system.l2.ReadCleanReq_miss_latency::total    300783000                       # number of ReadCleanReq miss cycles
system.l2.ReadCleanReq_accesses::.cpu.inst         3925                       # number of ReadCleanReq accesses(hits+misses)
system.l2.ReadCleanReq_accesses::total           3925                       # number of ReadCleanReq accesses(hits+misses)
system.l2.ReadCleanReq_miss_rate::.cpu.inst            1                       # miss rate for ReadCleanReq accesses
system.l2.ReadCleanReq_miss_rate::total             1                       # miss rate for ReadCleanReq accesses
system.l2.ReadCleanReq_avg_miss_latency::.cpu.inst 76632.611465                       # average ReadCleanReq miss latency
system.l2.ReadCleanReq_avg_miss_latency::total 76632.611465                       # average ReadCleanReq miss latency
system.l2.ReadCleanReq_mshr_misses::.cpu.inst         3925                       # number of ReadCleanReq MSHR misses
system.l2.ReadCleanReq_mshr_misses::total         3925                       # number of ReadCleanReq MSHR misses
system.l2.ReadCleanReq_mshr_miss_latency::.cpu.inst    261533000                       # number of ReadCleanReq MSHR miss cycles
system.l2.ReadCleanReq_mshr_miss_latency::total    261533000                       # number of ReadCleanReq MSHR miss cycles
system.l2.ReadCleanReq_mshr_miss_rate::.cpu.inst            1                       # mshr miss rate for ReadCleanReq accesses
system.l2.ReadCleanReq_mshr_miss_rate::total            1                       # mshr miss rate for ReadCleanReq accesses
system.l2.ReadCleanReq_avg_mshr_miss_latency::.cpu.inst 66632.611465                       # average ReadCleanReq mshr miss latency
system.l2.ReadCleanReq_avg_mshr_miss_latency::total 66632.611465                       # average ReadCleanReq mshr miss latency
system.l2.ReadSharedReq_hits::.cpu.data          3543                       # number of ReadSharedReq hits
system.l2.ReadSharedReq_hits::total              3543                       # number of ReadSharedReq hits
system.l2.ReadSharedReq_misses::.cpu.data        76673                       # number of ReadSharedReq misses
system.l2.ReadSharedReq_misses::total           76673                       # number of ReadSharedReq misses
system.l2.ReadSharedReq_miss_latency::.cpu.data   6657732000                       # number of ReadSharedReq miss cycles
system.l2.ReadSharedReq_miss_latency::total   6657732000                       # number of ReadSharedReq miss cycles
system.l2.ReadSharedReq_accesses::.cpu.data        80216                       # number of ReadSharedReq accesses(hits+misses)
system.l2.ReadSharedReq_accesses::total         80216                       # number of ReadSharedReq accesses(hits+misses)
system.l2.ReadSharedReq_miss_rate::.cpu.data     0.955832                       # miss rate for ReadSharedReq accesses
system.l2.ReadSharedReq_miss_rate::total     0.955832                       # miss rate for ReadSharedReq accesses
system.l2.ReadSharedReq_avg_miss_latency::.cpu.data 86832.809464                       # average ReadSharedReq miss latency
system.l2.ReadSharedReq_avg_miss_latency::total 86832.809464                       # average ReadSharedReq miss latency
system.l2.ReadSharedReq_mshr_misses::.cpu.data        76673                       # number of ReadSharedReq MSHR misses
system.l2.ReadSharedReq_mshr_misses::total        76673                       # number of ReadSharedReq MSHR misses
system.l2.ReadSharedReq_mshr_miss_latency::.cpu.data   5891002000                       # number of ReadSharedReq MSHR miss cycles
system.l2.ReadSharedReq_mshr_miss_latency::total   5891002000                       # number of ReadSharedReq MSHR miss cycles
system.l2.ReadSharedReq_mshr_miss_rate::.cpu.data     0.955832                       # mshr miss rate for ReadSharedReq accesses
system.l2.ReadSharedReq_mshr_miss_rate::total     0.955832                       # mshr miss rate for ReadSharedReq accesses
system.l2.ReadSharedReq_avg_mshr_miss_latency::.cpu.data 76832.809464                       # average ReadSharedReq mshr miss latency
system.l2.ReadSharedReq_avg_mshr_miss_latency::total 76832.809464                       # average ReadSharedReq mshr miss latency
system.l2.power_state.pwrStateResidencyTicks::UNDEFINED 137359459500                       # Cumulative time (in ticks) in various power states
system.l2.tags.tagsinuse                  4085.881083                       # Cycle average of tags in use
system.l2.tags.total_refs                      350595                       # Total number of references to valid blocks.
system.l2.tags.sampled_refs                    342529                       # Sample count of references to valid blocks.
system.l2.tags.avg_refs                      1.023548                       # Average number of references to valid blocks.
system.l2.tags.warmup_cycle                     77000                       # Cycle when the warmup percentage was hit.
system.l2.tags.occ_blocks::.writebacks    1924.918050                       # Average occupied blocks per requestor
system.l2.tags.occ_blocks::.cpu.inst        36.153004                       # Average occupied blocks per requestor
system.l2.tags.occ_blocks::.cpu.data      2124.810030                       # Average occupied blocks per requestor
system.l2.tags.occ_percent::.writebacks      0.469951                       # Average percentage of cache occupancy
system.l2.tags.occ_percent::.cpu.inst        0.008826                       # Average percentage of cache occupancy
system.l2.tags.occ_percent::.cpu.data        0.518752                       # Average percentage of cache occupancy
system.l2.tags.occ_percent::total            0.997530                       # Average percentage of cache occupancy
system.l2.tags.occ_task_id_blocks::1024          4096                       # Occupied blocks per task id
system.l2.tags.age_task_id_blocks_1024::0          128                       # Occupied blocks per task id
system.l2.tags.age_task_id_blocks_1024::1          994                       # Occupied blocks per task id
system.l2.tags.age_task_id_blocks_1024::2         2974                       # Occupied blocks per task id
system.l2.tags.occ_task_id_percent::1024            1                       # Percentage of cache occupancy per task id
system.l2.tags.tag_accesses                   1108655                       # Number of tag accesses
system.l2.tags.data_accesses                  1108655                       # Number of data accesses
system.l2.tags.power_state.pwrStateResidencyTicks::UNDEFINED 137359459500                       # Cumulative time (in ticks) in various power states
system.mem_ctrls.avgPriority_.writebacks::samples     77490.00                       # Average QoS priority value for accepted requests
system.mem_ctrls.avgPriority_.cpu.inst::samples      3925.00                       # Average QoS priority value for accepted requests
system.mem_ctrls.avgPriority_.cpu.data::samples    184166.00                       # Average QoS priority value for accepted requests
system.mem_ctrls.priorityMinLatency      0.000000018750                       # per QoS priority minimum request to response latency (s)
system.mem_ctrls.priorityMaxLatency      0.032609978500                       # per QoS priority maximum request to response latency (s)
system.mem_ctrls.numReadWriteTurnArounds         4355                       # Number of turnarounds from READ to WRITE
system.mem_ctrls.numWriteReadTurnArounds         4355                       # Number of turnarounds from WRITE to READ
system.mem_ctrls.numStayReadState              558257                       # Number of times bus staying in READ state
system.mem_ctrls.numStayWriteState              73192                       # Number of times bus staying in WRITE state
system.mem_ctrls.readReqs                      191200                       # Number of read requests accepted
system.mem_ctrls.writeReqs                     147575                       # Number of write requests accepted
system.mem_ctrls.readBursts                    191200                       # Number of controller read bursts, including those serviced by the write queue
system.mem_ctrls.writeBursts                   147575                       # Number of controller write bursts, including those merged in the write queue
system.mem_ctrls.servicedByWrQ                   3109                       # Number of controller read bursts serviced by the write queue
system.mem_ctrls.mergedWrBursts                 70085                       # Number of controller write bursts merged with an existing one
system.mem_ctrls.neitherReadNorWriteReqs            0                       # Number of requests that are neither read nor write
system.mem_ctrls.avgRdQLen                       1.00                       # Average read queue length when enqueuing
system.mem_ctrls.avgWrQLen                      23.27                       # Average write queue length when enqueuing
system.mem_ctrls.numRdRetry                         0                       # Number of times read queue was full causing retry
system.mem_ctrls.numWrRetry                         0                       # Number of times write queue was full causing retry
system.mem_ctrls.readPktSize::0                     0                       # Read request sizes (log2)
system.mem_ctrls.readPktSize::1                     0                       # Read request sizes (log2)
system.mem_ctrls.readPktSize::2                     0                       # Read request sizes (log2)
system.mem_ctrls.readPktSize::3                     0                       # Read request sizes (log2)
system.mem_ctrls.readPktSize::4                     0                       # Read request sizes (log2)
system.mem_ctrls.readPktSize::5                191200                       # Read request sizes (log2)
system.mem_ctrls.writePktSize::0                    0                       # Write request sizes (log2)
system.mem_ctrls.writePktSize::1                    0                       # Write request sizes (log2)
system.mem_ctrls.writePktSize::2                    0                       # Write request sizes (log2)
system.mem_ctrls.writePktSize::3                    0                       # Write request sizes (log2)
system.mem_ctrls.writePktSize::4                    0                       # Write request sizes (log2)
system.mem_ctrls.writePktSize::5               147575                       # Write request sizes (log2)
system.mem_ctrls.rdQLenPdf::0                  188070                       # What read queue length does an incoming req see
system.mem_ctrls.rdQLenPdf::1                      21                       # What read queue length does an incoming req see
system.mem_ctrls.rdQLenPdf::2                       0                       # What read queue length does an incoming req see
system.mem_ctrls.rdQLenPdf::3                       0                       # What read queue length does an incoming req see
system.mem_ctrls.rdQLenPdf::4                       0                       # What read queue length does an incoming req see
system.mem_ctrls.rdQLenPdf::5                       0                       # What read queue length does an incoming req see
system.mem_ctrls.rdQLenPdf::6                       0                       # What read queue length does an incoming req see
system.mem_ctrls.rdQLenPdf::7                       0                       # What read queue length does an incoming req see
system.mem_ctrls.rdQLenPdf::8                       0                       # What read queue length does an incoming req see
system.mem_ctrls.rdQLenPdf::9                       0                       # What read queue length does an incoming req see
system.mem_ctrls.rdQLenPdf::10                      0                       # What read queue length does an incoming req see
system.mem_ctrls.rdQLenPdf::11                      0                       # What read queue length does an incoming req see
system.mem_ctrls.rdQLenPdf::12                      0                       # What read queue length does an incoming req see
system.mem_ctrls.rdQLenPdf::13                      0                       # What read queue length does an incoming req see
system.mem_ctrls.rdQLenPdf::14                      0                       # What read queue length does an incoming req see
system.mem_ctrls.rdQLenPdf::15                      0                       # What read queue length does an incoming req see
system.mem_ctrls.rdQLenPdf::16                      0                       # What read queue length does an incoming req see
system.mem_ctrls.rdQLenPdf::17                      0                       # What read queue length does an incoming req see
system.mem_ctrls.rdQLenPdf::18                      0                       # What read queue length does an incoming req see
system.mem_ctrls.rdQLenPdf::19                      0                       # What read queue length does an incoming req see
system.mem_ctrls.rdQLenPdf::20                      0                       # What read queue length does an incoming req see
system.mem_ctrls.rdQLenPdf::21                      0                       # What read queue length does an incoming req see
system.mem_ctrls.rdQLenPdf::22                      0                       # What read queue length does an incoming req see
system.mem_ctrls.rdQLenPdf::23                      0                       # What read queue length does an incoming req see
system.mem_ctrls.rdQLenPdf::24                      0                       # What read queue length does an incoming req see
system.mem_ctrls.rdQLenPdf::25                      0                       # What read queue length does an incoming req see
system.mem_ctrls.rdQLenPdf::26                      0                       # What read queue length does an incoming req see
system.mem_ctrls.rdQLenPdf::27                      0                       # What read queue length does an incoming req see
system.mem_ctrls.rdQLenPdf::28                      0                       # What read queue length does an incoming req see
system.mem_ctrls.rdQLenPdf::29                      0                       # What read queue length does an incoming req see
system.mem_ctrls.rdQLenPdf::30                      0                       # What read queue length does an incoming req see
system.mem_ctrls.rdQLenPdf::31                      0                       # What read queue length does an incoming req see
system.mem_ctrls.wrQLenPdf::0                       1                       # What write queue length does an incoming req see
system.mem_ctrls.wrQLenPdf::1                       1                       # What write queue length does an incoming req see
system.mem_ctrls.wrQLenPdf::2                       1                       # What write queue length does an incoming req see
system.mem_ctrls.wrQLenPdf::3                       1                       # What write queue length does an incoming req see
system.mem_ctrls.wrQLenPdf::4                       1                       # What write queue length does an incoming req see
system.mem_ctrls.wrQLenPdf::5                       1                       # What write queue length does an incoming req see
system.mem_ctrls.wrQLenPdf::6                       1                       # What write queue length does an incoming req see
system.mem_ctrls.wrQLenPdf::7                       1                       # What write queue length does an incoming req see
system.mem_ctrls.wrQLenPdf::8                       1                       # What write queue length does an incoming req see
system.mem_ctrls.wrQLenPdf::9                       1                       # What write queue length does an incoming req see
system.mem_ctrls.wrQLenPdf::10                      1                       # What write queue length does an incoming req see
system.mem_ctrls.wrQLenPdf::11                      1                       # What write queue length does an incoming req see
system.mem_ctrls.wrQLenPdf::12                      1                       # What write queue length does an incoming req see
system.mem_ctrls.wrQLenPdf::13                      1                       # What write queue length does an incoming req see
system.mem_ctrls.wrQLenPdf::14                      1                       # What write queue length does an incoming req see
system.mem_ctrls.wrQLenPdf::15                   3884                       # What write queue length does an incoming req see
system.mem_ctrls.wrQLenPdf::16                   3905                       # What write queue length does an incoming req see
system.mem_ctrls.wrQLenPdf::17                   4354                       # What write queue length does an incoming req see
system.mem_ctrls.wrQLenPdf::18                   4355                       # What write queue length does an incoming req see
system.mem_ctrls.wrQLenPdf::19                   4355                       # What write queue length does an incoming req see
system.mem_ctrls.wrQLenPdf::20                   4356                       # What write queue length does an incoming req see
system.mem_ctrls.wrQLenPdf::21                   4356                       # What write queue length does an incoming req see
system.mem_ctrls.wrQLenPdf::22                   4355                       # What write queue length does an incoming req see
system.mem_ctrls.wrQLenPdf::23                   4355                       # What write queue length does an incoming req see
system.mem_ctrls.wrQLenPdf::24                   4355                       # What write queue length does an incoming req see
system.mem_ctrls.wrQLenPdf::25                   4355                       # What write queue length does an incoming req see
system.mem_ctrls.wrQLenPdf::26                   4355                       # What write queue length does an incoming req see
system.mem_ctrls.wrQLenPdf::27                   4355                       # What write queue length does an incoming req see
system.mem_ctrls.wrQLenPdf::28                   4356                       # What write queue length does an incoming req see
system.mem_ctrls.wrQLenPdf::29                   4356                       # What write queue length does an incoming req see
system.mem_ctrls.wrQLenPdf::30                   4355                       # What write queue length does an incoming req see
system.mem_ctrls.wrQLenPdf::31                   4355                       # What write queue length does an incoming req see
system.mem_ctrls.wrQLenPdf::32                   4355                       # What write queue length does an incoming req see
system.mem_ctrls.wrQLenPdf::33                      3                       # What write queue length does an incoming req see
system.mem_ctrls.wrQLenPdf::34                      0                       # What write queue length does an incoming req see
system.mem_ctrls.wrQLenPdf::35                      0                       # What write queue length does an incoming req see
system.mem_ctrls.wrQLenPdf::36                      0                       # What write queue length does an incoming req see
system.mem_ctrls.wrQLenPdf::37                      0                       # What write queue length does an incoming req see
system.mem_ctrls.wrQLenPdf::38                      0                       # What write queue length does an incoming req see
system.mem_ctrls.wrQLenPdf::39                      0                       # What write queue length does an incoming req see
system.mem_ctrls.wrQLenPdf::40                      0                       # What write queue length does an incoming req see
system.mem_ctrls.wrQLenPdf::41                      0                       # What write queue length does an incoming req see
system.mem_ctrls.wrQLenPdf::42                      0                       # What write queue length does an incoming req see
system.mem_ctrls.wrQLenPdf::43                      0                       # What write queue length does an incoming req see
system.mem_ctrls.wrQLenPdf::44                      0                       # What write queue length does an incoming req see
system.mem_ctrls.wrQLenPdf::45                      0                       # What write queue length does an incoming req see
system.mem_ctrls.wrQLenPdf::46                      0                       # What write queue length does an incoming req see
system.mem_ctrls.wrQLenPdf::47                      0                       # What write queue length does an incoming req see
system.mem_ctrls.wrQLenPdf::48                      0                       # What write queue length does an incoming req see
system.mem_ctrls.wrQLenPdf::49                      0                       # What write queue length does an incoming req see
system.mem_ctrls.wrQLenPdf::50                      0                       # What write queue length does an incoming req see
system.mem_ctrls.wrQLenPdf::51                      0                       # What write queue length does an incoming req see
system.mem_ctrls.wrQLenPdf::52                      0                       # What write queue length does an incoming req see
system.mem_ctrls.wrQLenPdf::53                      0                       # What write queue length does an incoming req see
system.mem_ctrls.wrQLenPdf::54                      0                       # What write queue length does an incoming req see
system.mem_ctrls.wrQLenPdf::55                      0                       # What write queue length does an incoming req see
system.mem_ctrls.wrQLenPdf::56                      0                       # What write queue length does an incoming req see
system.mem_ctrls.wrQLenPdf::57                      0                       # What write queue length does an incoming req see
system.mem_ctrls.wrQLenPdf::58                      0                       # What write queue length does an incoming req see
system.mem_ctrls.wrQLenPdf::59                      0                       # What write queue length does an incoming req see
system.mem_ctrls.wrQLenPdf::60                      0                       # What write queue length does an incoming req see
system.mem_ctrls.wrQLenPdf::61                      0                       # What write queue length does an incoming req see
system.mem_ctrls.wrQLenPdf::62                      0                       # What write queue length does an incoming req see
system.mem_ctrls.wrQLenPdf::63                      0                       # What write queue length does an incoming req see
system.mem_ctrls.rdPerTurnAround::samples         4355                       # Reads before turning the bus around for writes
system.mem_ctrls.rdPerTurnAround::mean      43.188978                       # Reads before turning the bus around for writes
system.mem_ctrls.rdPerTurnAround::gmean     37.605069                       # Reads before turning the bus around for writes
system.mem_ctrls.rdPerTurnAround::stdev     93.061460                       # Reads before turning the bus around for writes
system.mem_ctrls.rdPerTurnAround::0-255          4331     99.45%     99.45% # Reads before turning the bus around for writes
system.mem_ctrls.rdPerTurnAround::256-511           16      0.37%     99.82% # Reads before turning the bus around for writes
system.mem_ctrls.rdPerTurnAround::512-767            2      0.05%     99.86% # Reads before turning the bus around for writes
system.mem_ctrls.rdPerTurnAround::768-1023            1      0.02%     99.89% # Reads before turning the bus around for writes
system.mem_ctrls.rdPerTurnAround::1024-1279            2      0.05%     99.93% # Reads before turning the bus around for writes
system.mem_ctrls.rdPerTurnAround::1536-1791            1      0.02%     99.95% # Reads before turning the bus around for writes
system.mem_ctrls.rdPerTurnAround::3072-3327            1      0.02%     99.98% # Reads before turning the bus around for writes
system.mem_ctrls.rdPerTurnAround::4096-4351            1      0.02%    100.00% # Reads before turning the bus around for writes
system.mem_ctrls.rdPerTurnAround::total          4355                       # Reads before turning the bus around for writes
system.mem_ctrls.wrPerTurnAround::samples         4355                       # Writes before turning the bus around for reads
system.mem_ctrls.wrPerTurnAround::mean      17.789437                       # Writes before turning the bus around for reads
system.mem_ctrls.wrPerTurnAround::gmean     17.778176                       # Writes before turning the bus around for reads
system.mem_ctrls.wrPerTurnAround::stdev      0.614089                       # Writes before turning the bus around for reads
system.mem_ctrls.wrPerTurnAround::16              452     10.38%     10.38% # Writes before turning the bus around for reads
system.mem_ctrls.wrPerTurnAround::17               20      0.46%     10.84% # Writes before turning the bus around for reads
system.mem_ctrls.wrPerTurnAround::18             3876     89.00%     99.84% # Writes before turning the bus around for reads
system.mem_ctrls.wrPerTurnAround::19                7      0.16%    100.00% # Writes before turning the bus around for reads
system.mem_ctrls.wrPerTurnAround::total          4355                       # Writes before turning the bus around for reads
system.mem_ctrls.bytesReadWrQ                  198976                       # Total number of bytes read from write queue
system.mem_ctrls.bytesReadSys                 6118400                       # Total read bytes from the system interface side
system.mem_ctrls.bytesWrittenSys              4722400                       # Total written bytes from the system interface side
system.mem_ctrls.avgRdBWSys                     44.54                       # Average system read bandwidth in MiByte/s
system.mem_ctrls.avgWrBWSys                     34.38                       # Average system write bandwidth in MiByte/s
system.mem_ctrls.totGap                  137359385500                       # Total gap between requests
system.mem_ctrls.avgGap                     405459.04                       # Average gap between requests
system.mem_ctrls.requestorReadBytes::.cpu.inst       125600                       # Per-requestor bytes read from memory
system.mem_ctrls.requestorReadBytes::.cpu.data      5893312                       # Per-requestor bytes read from memory
system.mem_ctrls.requestorWriteBytes::.writebacks      2479136                       # Per-requestor bytes write to memory
[...]
system.mem_ctrls.dram.bw_total::.cpu.data     43628593                       # Total bandwidth to/from this memory (bytes/s)
system.mem_ctrls.dram.bw_total::total        78922850                       # Total bandwidth to/from this memory (bytes/s)
system.mem_ctrls.dram.readBursts               188091                       # Number of DRAM read bursts
system.mem_ctrls.dram.writeBursts               77473                       # Number of DRAM write bursts
system.mem_ctrls.dram.perBankRdBursts::0        12463                       # Per bank write bursts
system.mem_ctrls.dram.perBankRdBursts::1        12012                       # Per bank write bursts
system.mem_ctrls.dram.perBankRdBursts::2        11601                       # Per bank write bursts
system.mem_ctrls.dram.perBankRdBursts::3        12582                       # Per bank write bursts
system.mem_ctrls.dram.perBankRdBursts::4        11376                       # Per bank write bursts
system.mem_ctrls.dram.perBankRdBursts::5        11061                       # Per bank write bursts
system.mem_ctrls.dram.perBankRdBursts::6        11143                       # Per bank write bursts
system.mem_ctrls.dram.perBankRdBursts::7        11624                       # Per bank write bursts
system.mem_ctrls.dram.perBankRdBursts::8        11961                       # Per bank write bursts
system.mem_ctrls.dram.perBankRdBursts::9        12393                       # Per bank write bursts
system.mem_ctrls.dram.perBankRdBursts::10        12544                       # Per bank write bursts
system.mem_ctrls.dram.perBankRdBursts::11        11741                       # Per bank write bursts
system.mem_ctrls.dram.perBankRdBursts::12        11143                       # Per bank write bursts
system.mem_ctrls.dram.perBankRdBursts::13        11024                       # Per bank write bursts
system.mem_ctrls.dram.perBankRdBursts::14        11377                       # Per bank write bursts
system.mem_ctrls.dram.perBankRdBursts::15        12046                       # Per bank write bursts
system.mem_ctrls.dram.perBankWrBursts::0         5089                       # Per bank write bursts
system.mem_ctrls.dram.perBankWrBursts::1         4894                       # Per bank write bursts
system.mem_ctrls.dram.perBankWrBursts::2         4880                       # Per bank write bursts
system.mem_ctrls.dram.perBankWrBursts::3         4999                       # Per bank write bursts
system.mem_ctrls.dram.perBankWrBursts::4         4520                       # Per bank write bursts
system.mem_ctrls.dram.perBankWrBursts::5         4589                       # Per bank write bursts
system.mem_ctrls.dram.perBankWrBursts::6         4942                       # Per bank write bursts
system.mem_ctrls.dram.perBankWrBursts::7         4471                       # Per bank write bursts
system.mem_ctrls.dram.perBankWrBursts::8         5118                       # Per bank write bursts
system.mem_ctrls.dram.perBankWrBursts::9         5034                       # Per bank write bursts
system.mem_ctrls.dram.perBankWrBursts::10         5095                       # Per bank write bursts
system.mem_ctrls.dram.perBankWrBursts::11         4940                       # Per bank write bursts
system.mem_ctrls.dram.perBankWrBursts::12         4815                       # Per bank write bursts
system.mem_ctrls.dram.perBankWrBursts::13         4568                       # Per bank write bursts
system.mem_ctrls.dram.perBankWrBursts::14         4814                       # Per bank write bursts
system.mem_ctrls.dram.perBankWrBursts::15         4705                       # Per bank write bursts
system.mem_ctrls.dram.totQLat              2111377500                       # Total ticks spent queuing
system.mem_ctrls.dram.totBusLat             940455000                       # Total ticks spent in databus transfers
system.mem_ctrls.dram.totMemAccLat         5638083750                       # Total ticks spent from burst creation until serviced by the DRAM
system.mem_ctrls.dram.avgQLat                11225.30                       # Average queueing delay per DRAM burst
system.mem_ctrls.dram.avgBusLat               5000.00                       # Average bus latency per DRAM burst
system.mem_ctrls.dram.avgMemAccLat           29975.30                       # Average memory access latency per DRAM burst
system.mem_ctrls.dram.readRowHits              122363                       # Number of row buffer hits during reads
system.mem_ctrls.dram.writeRowHits              67363                       # Number of row buffer hits during writes
system.mem_ctrls.dram.readRowHitRate            65.06                       # Row buffer hit rate for reads
system.mem_ctrls.dram.writeRowHitRate           86.95                       # Row buffer hit rate for writes
system.mem_ctrls.dram.bytesPerActivate::samples        75829                       # Bytes accessed per row activation
system.mem_ctrls.dram.bytesPerActivate::mean   224.114363                       # Bytes accessed per row activation
system.mem_ctrls.dram.bytesPerActivate::gmean   130.983001                       # Bytes accessed per row activation
system.mem_ctrls.dram.bytesPerActivate::stdev   274.364657                       # Bytes accessed per row activation
system.mem_ctrls.dram.bytesPerActivate::0-127        43397     57.23%     57.23% # Bytes accessed per row activation
system.mem_ctrls.dram.bytesPerActivate::128-255         8993     11.86%     69.09% # Bytes accessed per row activation
system.mem_ctrls.dram.bytesPerActivate::256-383        10950     14.44%     83.53% # Bytes accessed per row activation
system.mem_ctrls.dram.bytesPerActivate::384-511         1538      2.03%     85.56% # Bytes accessed per row activation
system.mem_ctrls.dram.bytesPerActivate::512-639         2167      2.86%     88.42% # Bytes accessed per row activation
system.mem_ctrls.dram.bytesPerActivate::640-767         1940      2.56%     90.97% # Bytes accessed per row activation
system.mem_ctrls.dram.bytesPerActivate::768-895         1286      1.70%     92.67% # Bytes accessed per row activation
system.mem_ctrls.dram.bytesPerActivate::896-1023         1180      1.56%     94.23% # Bytes accessed per row activation
system.mem_ctrls.dram.bytesPerActivate::1024-1151         4378      5.77%    100.00% # Bytes accessed per row activation
system.mem_ctrls.dram.bytesPerActivate::total        75829                       # Bytes accessed per row activation
system.mem_ctrls.dram.bytesRead              12037824                       # Total number of bytes read from DRAM
system.mem_ctrls.dram.bytesWritten            4958272                       # Total number of bytes written to DRAM
system.mem_ctrls.dram.avgRdBW               87.637386                       # Average DRAM read bandwidth in MiBytes/s
system.mem_ctrls.dram.avgWrBW               36.097055                       # Average DRAM write bandwidth in MiBytes/s
system.mem_ctrls.dram.peakBW                 12800.00                       # Theoretical peak bandwidth in MiByte/s
system.mem_ctrls.dram.busUtil                    0.97                       # Data bus utilization in percentage
system.mem_ctrls.dram.busUtilRead                0.68                       # Data bus utilization in percentage for reads
system.mem_ctrls.dram.busUtilWrite               0.28                       # Data bus utilization in percentage for writes
system.mem_ctrls.dram.pageHitRate               71.44                       # Row buffer hit rate, read and write combined
system.mem_ctrls.dram.power_state.pwrStateResidencyTicks::UNDEFINED 137359459500                       # Cumulative time (in ticks) in various power states
system.mem_ctrls.dram.rank0.actEnergy       268121280                       # Energy for activate commands per rank (pJ)
system.mem_ctrls.dram.rank0.preEnergy       142498455                       # Energy for precharge commands per rank (pJ)
system.mem_ctrls.dram.rank0.readEnergy      670174680                       # Energy for read commands per rank (pJ)
system.mem_ctrls.dram.rank0.writeEnergy     200364480                       # Energy for write commands per rank (pJ)
system.mem_ctrls.dram.rank0.refreshEnergy 10842864240.000002                       # Energy for refresh commands per rank (pJ)
system.mem_ctrls.dram.rank0.actBackEnergy  24424523940                       # Energy for active background per rank (pJ)
system.mem_ctrls.dram.rank0.preBackEnergy  32178012480                       # Energy for precharge background per rank (pJ)
system.mem_ctrls.dram.rank0.actPowerDownEnergy            0                       # Energy for active power-down per rank (pJ)
system.mem_ctrls.dram.rank0.prePowerDownEnergy            0                       # Energy for precharge power-down per rank (pJ)
system.mem_ctrls.dram.rank0.selfRefreshEnergy            0                       # Energy for self refresh per rank (pJ)
system.mem_ctrls.dram.rank0.totalEnergy   68726559555                       # Total energy per rank (pJ)
system.mem_ctrls.dram.rank0.averagePower   500.340929                       # Core power per rank (mW)
system.mem_ctrls.dram.rank0.totalIdleTime            0                       # Total Idle time Per DRAM Rank
system.mem_ctrls.dram.rank0.pwrStateTime::IDLE  83271910750                       # Time in different power states
system.mem_ctrls.dram.rank0.pwrStateTime::REF   4586660000                       # Time in different power states
system.mem_ctrls.dram.rank0.pwrStateTime::SREF            0                       # Time in different power states
system.mem_ctrls.dram.rank0.pwrStateTime::PRE_PDN            0                       # Time in different power states
system.mem_ctrls.dram.rank0.pwrStateTime::ACT  49500888750                       # Time in different power states
system.mem_ctrls.dram.rank0.pwrStateTime::ACT_PDN            0                       # Time in different power states
system.mem_ctrls.dram.rank1.actEnergy       273362040                       # Energy for activate commands per rank (pJ)
system.mem_ctrls.dram.rank1.preEnergy       145272600                       # Energy for precharge commands per rank (pJ)
system.mem_ctrls.dram.rank1.readEnergy      672795060                       # Energy for read commands per rank (pJ)
system.mem_ctrls.dram.rank1.writeEnergy     204044580                       # Energy for write commands per rank (pJ)
system.mem_ctrls.dram.rank1.refreshEnergy 10842864240.000002                       # Energy for refresh commands per rank (pJ)
system.mem_ctrls.dram.rank1.actBackEnergy  25040451690                       # Energy for active background per rank (pJ)
system.mem_ctrls.dram.rank1.preBackEnergy  31659336480                       # Energy for precharge background per rank (pJ)
system.mem_ctrls.dram.rank1.actPowerDownEnergy            0                       # Energy for active power-down per rank (pJ)
system.mem_ctrls.dram.rank1.prePowerDownEnergy            0                       # Energy for precharge power-down per rank (pJ)
system.mem_ctrls.dram.rank1.selfRefreshEnergy            0                       # Energy for self refresh per rank (pJ)
system.mem_ctrls.dram.rank1.totalEnergy   68838126690                       # Total energy per rank (pJ)
system.mem_ctrls.dram.rank1.averagePower   501.153156                       # Core power per rank (mW)
system.mem_ctrls.dram.rank1.totalIdleTime            0                       # Total Idle time Per DRAM Rank
system.mem_ctrls.dram.rank1.pwrStateTime::IDLE  81859942250                       # Time in different power states
system.mem_ctrls.dram.rank1.pwrStateTime::REF   4586660000                       # Time in different power states
system.mem_ctrls.dram.rank1.pwrStateTime::SREF            0                       # Time in different power states
system.mem_ctrls.dram.rank1.pwrStateTime::PRE_PDN            0                       # Time in different power states
system.mem_ctrls.dram.rank1.pwrStateTime::ACT  50912857250                       # Time in different power states
system.mem_ctrls.dram.rank1.pwrStateTime::ACT_PDN            0                       # Time in different power states
system.mem_ctrls.power_state.pwrStateResidencyTicks::UNDEFINED 137359459500                       # Cumulative time (in ticks) in various power states
system.membus.trans_dist::ReadResp              80598                       # Transaction distribution
system.membus.trans_dist::WritebackDirty       147575                       # Transaction distribution
system.membus.trans_dist::CleanEvict            33575                       # Transaction distribution
system.membus.trans_dist::ReadExReq            110602                       # Transaction distribution
system.membus.trans_dist::ReadExResp           110602                       # Transaction distribution
system.membus.trans_dist::ReadSharedReq         80598                       # Transaction distribution
system.membus.pkt_count_system.l2.mem_side_port::system.mem_ctrls.port       563550                       # Packet count per connected requestor and responder (bytes)
system.membus.pkt_count_system.l2.mem_side_port::total       563550                       # Packet count per connected requestor and responder (bytes)
system.membus.pkt_count::total                 563550                       # Packet count per connected requestor and responder (bytes)
system.membus.pkt_size_system.l2.mem_side_port::system.mem_ctrls.port     10840800                       # Cumulative packet size per connected requestor and responder (bytes)
system.membus.pkt_size_system.l2.mem_side_port::total     10840800                       # Cumulative packet size per connected requestor and responder (bytes)
system.membus.pkt_size::total                10840800                       # Cumulative packet size per connected requestor and responder (bytes)
system.membus.snoops                                0                       # Total snoops (count)
system.membus.snoopTraffic                          0                       # Total snoop traffic (bytes)
system.membus.snoop_fanout::samples            191200                       # Request fanout histogram
system.membus.snoop_fanout::mean                    0                       # Request fanout histogram
system.membus.snoop_fanout::stdev                   0                       # Request fanout histogram
system.membus.snoop_fanout::underflows              0      0.00%      0.00% # Request fanout histogram
system.membus.snoop_fanout::0                  191200    100.00%    100.00% # Request fanout histogram
system.membus.snoop_fanout::1                       0      0.00%    100.00% # Request fanout histogram
system.membus.snoop_fanout::overflows               0      0.00%    100.00% # Request fanout histogram
system.membus.snoop_fanout::min_value               0                       # Request fanout histogram
system.membus.snoop_fanout::max_value               0                       # Request fanout histogram
system.membus.snoop_fanout::total              191200                       # Request fanout histogram
system.membus.power_state.pwrStateResidencyTicks::UNDEFINED 137359459500                       # Cumulative time (in ticks) in various power states
system.membus.reqLayer2.occupancy           667541000                       # Layer occupancy (ticks)
system.membus.reqLayer2.utilization               0.5                       # Layer utilization (%)
system.membus.respLayer1.occupancy          646215250                       # Layer occupancy (ticks)
system.membus.respLayer1.utilization              0.5                       # Layer utilization (%)
system.tol2bus.trans_dist::ReadResp             84141                       # Transaction distribution
system.tol2bus.trans_dist::WritebackDirty       301354                       # Transaction distribution
system.tol2bus.trans_dist::WritebackClean            8                       # Transaction distribution
system.tol2bus.trans_dist::CleanEvict          224596                       # Transaction distribution
system.tol2bus.trans_dist::ReadExReq           111397                       # Transaction distribution
system.tol2bus.trans_dist::ReadExResp          111397                       # Transaction distribution
system.tol2bus.trans_dist::ReadCleanReq          3925                       # Transaction distribution
system.tol2bus.trans_dist::ReadSharedReq        80216                       # Transaction distribution
system.tol2bus.pkt_count_system.cpu.icache.mem_side_port::system.l2.cpu_side_port         7858                       # Packet count per connected requestor and responder (bytes)
system.tol2bus.pkt_count_system.cpu.dcache.mem_side_port::system.l2.cpu_side_port       570743                       # Packet count per connected requestor and responder (bytes)
system.tol2bus.pkt_count::total                578601                       # Packet count per connected requestor and responder (bytes)
system.tol2bus.pkt_size_system.cpu.icache.mem_side_port::system.l2.cpu_side_port       125856                       # Cumulative packet size per connected requestor and responder (bytes)
system.tol2bus.pkt_size_system.cpu.dcache.mem_side_port::system.l2.cpu_side_port     11052544                       # Cumulative packet size per connected requestor and responder (bytes)
system.tol2bus.pkt_size::total               11178400                       # Cumulative packet size per connected requestor and responder (bytes)
system.tol2bus.snoops                          338433                       # Total snoops (count)
system.tol2bus.snoopTraffic                   4722400                       # Total snoop traffic (bytes)
system.tol2bus.snoop_fanout::samples           533971                       # Request fanout histogram
system.tol2bus.snoop_fanout::mean            0.355358                       # Request fanout histogram
system.tol2bus.snoop_fanout::stdev           0.478622                       # Request fanout histogram
system.tol2bus.snoop_fanout::underflows             0      0.00%      0.00% # Request fanout histogram
system.tol2bus.snoop_fanout::0                 344220     64.46%     64.46% # Request fanout histogram
system.tol2bus.snoop_fanout::1                 189751     35.54%    100.00% # Request fanout histogram
system.tol2bus.snoop_fanout::2                      0      0.00%    100.00% # Request fanout histogram
system.tol2bus.snoop_fanout::3                      0      0.00%    100.00% # Request fanout histogram
system.tol2bus.snoop_fanout::4                      0      0.00%    100.00% # Request fanout histogram
system.tol2bus.snoop_fanout::overflows              0      0.00%    100.00% # Request fanout histogram
system.tol2bus.snoop_fanout::min_value              0                       # Request fanout histogram
system.tol2bus.snoop_fanout::max_value              1                       # Request fanout histogram
system.tol2bus.snoop_fanout::total             533971                       # Request fanout histogram
system.tol2bus.power_state.pwrStateResidencyTicks::UNDEFINED 137359459500                       # Cumulative time (in ticks) in various power states
system.tol2bus.reqLayer0.occupancy          268425000                       # Layer occupancy (ticks)
system.tol2bus.reqLayer0.utilization              0.2                       # Layer utilization (%)
system.tol2bus.respLayer0.occupancy           3925000                       # Layer occupancy (ticks)
system.tol2bus.respLayer0.utilization             0.0                       # Layer utilization (%)
system.tol2bus.respLayer1.occupancy         191613000                       # Layer occupancy (ticks)
system.tol2bus.respLayer1.utilization             0.1                       # Layer utilization (%)
system.voltage_domain.voltage                       1                       # Voltage in Volts

---------- End Simulation Statistics   ----------
