
---------- Begin Simulation Statistics ----------
final_tick                               187753351500                       # Number of ticks from beginning of simulation (restored from checkpoints and never reset)
host_inst_rate                                 550948                       # Simulator instruction rate (inst/s)
host_mem_usage                                 703344                       # Number of bytes of host memory used
host_op_rate                                   871079                       # Simulator op (including micro ops) rate (op/s)
host_seconds                                   181.51                       # Real time elapsed on the host
host_tick_rate                             1034422243                       # Simulator tick rate (ticks/s)
sim_freq                                 1000000000000                       # Frequency of simulated ticks
sim_insts                                   100000001                       # Number of instructions simulated
sim_ops                                     158105592                       # Number of ops (including micro ops) simulated
sim_seconds                                  0.187753                       # Number of seconds simulated
sim_ticks                                187753351500                       # Number of ticks simulated
system.cpu.Branches                           8068245                       # Number of branches fetched
system.cpu.committedInsts                   100000001                       # Number of instructions committed
system.cpu.committedOps                     158105592                       # Number of ops (including micro ops) committed
system.cpu.idle_fraction                            0                       # Percentage of idle cycles
system.cpu.not_idle_fraction                        1                       # Percentage of non-idle cycles
system.cpu.numCycles                        375506703                       # number of cpu cycles simulated
system.cpu.numWorkItemsCompleted                    0                       # number of work items this cpu completed
system.cpu.numWorkItemsStarted                      0                       # number of work items this cpu started
system.cpu.num_busy_cycles                  375506703                       # Number of busy cycles
system.cpu.num_cc_register_reads             26309364                       # number of times the CC registers were read
system.cpu.num_cc_register_writes            50490369                       # number of times the CC registers were written
system.cpu.num_conditional_control_insts      4194429                       # number of instructions that are conditional controls
system.cpu.num_fp_alu_accesses               33007950                       # Number of float alu accesses
system.cpu.num_fp_insts                      33007950                       # number of float instructions
system.cpu.num_fp_register_reads             36021489                       # number of times the floating registers were read
system.cpu.num_fp_register_writes            28984633                       # number of times the floating registers were written
system.cpu.num_func_calls                      911313                       # number of times a function call or return occured
system.cpu.num_idle_cycles                          0                       # Number of idle cycles
system.cpu.num_int_alu_accesses             137710574                       # Number of integer alu accesses
system.cpu.num_int_insts                    137710574                       # number of integer instructions
system.cpu.num_int_register_reads           303623416                       # number of times the integer registers were read
system.cpu.num_int_register_writes          116067071                       # number of times the integer registers were written
system.cpu.num_load_insts                    42950395                       # Number of load instructions
system.cpu.num_mem_refs                      50914575                       # number of memory refs
system.cpu.num_store_insts                    7964180                       # Number of store instructions
system.cpu.num_vec_alu_accesses                     0                       # Number of vector alu accesses
system.cpu.num_vec_insts                            0                       # number of vector instructions
system.cpu.num_vec_register_reads                   0                       # number of times the vector registers were read
system.cpu.num_vec_register_writes                  0                       # number of times the vector registers were written
system.cpu.op_class::No_OpClass                737110      0.47%      0.47% # Class of executed instruction
system.cpu.op_class::IntAlu                  83725076     52.96%     53.42% # Class of executed instruction
system.cpu.op_class::IntMult                  3991004      2.52%     55.95% # Class of executed instruction
system.cpu.op_class::IntDiv                     35934      0.02%     55.97% # Class of executed instruction
system.cpu.op_class::FloatAdd                 7424559      4.70%     60.66% # Class of executed instruction
system.cpu.op_class::FloatCmp                       0      0.00%     60.66% # Class of executed instruction
system.cpu.op_class::FloatCvt                    1104      0.00%     60.66% # Class of executed instruction
system.cpu.op_class::FloatMult                      0      0.00%     60.66% # Class of executed instruction
system.cpu.op_class::FloatMultAcc                   0      0.00%     60.66% # Class of executed instruction
system.cpu.op_class::FloatDiv                       0      0.00%     60.66% # Class of executed instruction
system.cpu.op_class::FloatMisc                      0      0.00%     60.66% # Class of executed instruction
system.cpu.op_class::FloatSqrt                      0      0.00%     60.66% # Class of executed instruction
system.cpu.op_class::SimdAdd                     6594      0.00%     60.67% # Class of executed instruction
system.cpu.op_class::SimdAddAcc                     0      0.00%     60.67% # Class of executed instruction
system.cpu.op_class::SimdAlu                  2217297      1.40%     62.07% # Class of executed instruction
system.cpu.op_class::SimdCmp                        0      0.00%     62.07% # Class of executed instruction
system.cpu.op_class::SimdCvt                    13550      0.01%     62.08% # Class of executed instruction
system.cpu.op_class::SimdMisc                 1026602      0.65%     62.73% # Class of executed instruction
system.cpu.op_class::SimdMult                       0      0.00%     62.73% # Class of executed instruction
system.cpu.op_class::SimdMultAcc                    0      0.00%     62.73% # Class of executed instruction
system.cpu.op_class::SimdShift                    341      0.00%     62.73% # Class of executed instruction
system.cpu.op_class::SimdShiftAcc                   0      0.00%     62.73% # Class of executed instruction
system.cpu.op_class::SimdDiv                        0      0.00%     62.73% # Class of executed instruction
system.cpu.op_class::SimdSqrt                       0      0.00%     62.73% # Class of executed instruction
system.cpu.op_class::SimdFloatAdd             3435965      2.17%     64.90% # Class of executed instruction
system.cpu.op_class::SimdFloatAlu                   0      0.00%     64.90% # Class of executed instruction
system.cpu.op_class::SimdFloatCmp                   0      0.00%     64.90% # Class of executed instruction
system.cpu.op_class::SimdFloatCvt              516159      0.33%     65.23% # Class of executed instruction
system.cpu.op_class::SimdFloatDiv              103976      0.07%     65.30% # Class of executed instruction
system.cpu.op_class::SimdFloatMisc                  0      0.00%     65.30% # Class of executed instruction
system.cpu.op_class::SimdFloatMult            3955815      2.50%     67.80% # Class of executed instruction
system.cpu.op_class::SimdFloatMultAcc               0      0.00%     67.80% # Class of executed instruction
system.cpu.op_class::SimdFloatSqrt                256      0.00%     67.80% # Class of executed instruction
system.cpu.op_class::SimdReduceAdd                  0      0.00%     67.80% # Class of executed instruction
system.cpu.op_class::SimdReduceAlu                  0      0.00%     67.80% # Class of executed instruction
system.cpu.op_class::SimdReduceCmp                  0      0.00%     67.80% # Class of executed instruction
system.cpu.op_class::SimdFloatReduceAdd             0      0.00%     67.80% # Class of executed instruction
system.cpu.op_class::SimdFloatReduceCmp             0      0.00%     67.80% # Class of executed instruction
system.cpu.op_class::SimdAes                        0      0.00%     67.80% # Class of executed instruction
system.cpu.op_class::SimdAesMix                     0      0.00%     67.80% # Class of executed instruction
system.cpu.op_class::SimdSha1Hash                   0      0.00%     67.80% # Class of executed instruction
system.cpu.op_class::SimdSha1Hash2                  0      0.00%     67.80% # Class of executed instruction
system.cpu.op_class::SimdSha256Hash                 0      0.00%     67.80% # Class of executed instruction
system.cpu.op_class::SimdSha256Hash2                0      0.00%     67.80% # Class of executed instruction
system.cpu.op_class::SimdShaSigma2                  0      0.00%     67.80% # Class of executed instruction
system.cpu.op_class::SimdShaSigma3                  0      0.00%     67.80% # Class of executed instruction
system.cpu.op_class::SimdPredAlu                    0      0.00%     67.80% # Class of executed instruction
system.cpu.op_class::MemRead                 33643170     21.28%     89.08% # Class of executed instruction
system.cpu.op_class::MemWrite                 4944921      3.13%     92.20% # Class of executed instruction
system.cpu.op_class::FloatMemRead             9307225      5.89%     98.09% # Class of executed instruction
system.cpu.op_class::FloatMemWrite            3019259      1.91%    100.00% # Class of executed instruction
system.cpu.op_class::IprAccess                      0      0.00%    100.00% # Class of executed instruction
system.cpu.op_class::InstPrefetch                   0      0.00%    100.00% # Class of executed instruction
system.cpu.op_class::total                  158105917                       # Class of executed instruction
system.cpu.workload.numSyscalls                    68                       # Number of system calls
system.membus.snoop_filter.hit_multi_requests            0                       # Number of requests hitting in the snoop filter with multiple (>1) holders of the requested data.
system.membus.snoop_filter.hit_multi_snoops            0                       # Number of snoops hitting in the snoop filter with multiple (>1) holders of the requested data.
system.membus.snoop_filter.hit_single_requests        16883                       # Number of requests hitting in the snoop filter with a single holder of the requested data.
system.membus.snoop_filter.hit_single_snoops            0                       # Number of snoops hitting in the snoop filter with a single holder of the requested data.
system.membus.snoop_filter.tot_requests         41268                       # Total number of requests made to the snoop filter.
system.membus.snoop_filter.tot_snoops               0                       # Total number of snoops made to the snoop filter.
system.tol2bus.snoop_filter.hit_multi_requests            0                       # Number of requests hitting in the snoop filter with multiple (>1) holders of the requested data.
system.tol2bus.snoop_filter.hit_multi_snoops            0                       # Number of snoops hitting in the snoop filter with multiple (>1) holders of the requested data.
system.tol2bus.snoop_filter.hit_single_requests        19587                       # Number of requests hitting in the snoop filter with a single holder of the requested data.
system.tol2bus.snoop_filter.hit_single_snoops        16459                       # Number of snoops hitting in the snoop filter with a single holder of the requested data.
system.tol2bus.snoop_filter.tot_requests        45782                       # Total number of requests made to the snoop filter.
system.tol2bus.snoop_filter.tot_snoops          16459                       # Total number of snoops made to the snoop filter.
system.clk_domain.clock                          1000                       # Clock period in ticks
system.cpu.dcache.demand_hits::.cpu.data     50891443                       # number of demand (read+write) hits
system.cpu.dcache.demand_hits::total         50891443                       # number of demand (read+write) hits
system.cpu.dcache.overall_hits::.cpu.data     50891443                       # number of overall hits
system.cpu.dcache.overall_hits::total        50891443                       # number of overall hits
system.cpu.dcache.demand_misses::.cpu.data        23182                       # number of demand (read+write) misses
system.cpu.dcache.demand_misses::total          23182                       # number of demand (read+write) misses
system.cpu.dcache.overall_misses::.cpu.data        23182                       # number of overall misses
system.cpu.dcache.overall_misses::total         23182                       # number of overall misses
system.cpu.dcache.demand_miss_latency::.cpu.data   1793881000                       # number of demand (read+write) miss cycles
system.cpu.dcache.demand_miss_latency::total   1793881000                       # number of demand (read+write) miss cycles
system.cpu.dcache.overall_miss_latency::.cpu.data   1793881000                       # number of overall miss cycles
system.cpu.dcache.overall_miss_latency::total   1793881000                       # number of overall miss cycles
system.cpu.dcache.demand_accesses::.cpu.data     50914625                       # number of demand (read+write) accesses
system.cpu.dcache.demand_accesses::total     50914625                       # number of demand (read+write) accesses
system.cpu.dcache.overall_accesses::.cpu.data     50914625                       # number of overall (read+write) accesses
system.cpu.dcache.overall_accesses::total     50914625                       # number of overall (read+write) accesses
system.cpu.dcache.demand_miss_rate::.cpu.data     0.000455                       # miss rate for demand accesses
system.cpu.dcache.demand_miss_rate::total     0.000455                       # miss rate for demand accesses
system.cpu.dcache.overall_miss_rate::.cpu.data     0.000455                       # miss rate for overall accesses
system.cpu.dcache.overall_miss_rate::total     0.000455                       # miss rate for overall accesses
system.cpu.dcache.demand_avg_miss_latency::.cpu.data 77382.495039                       # average overall miss latency
system.cpu.dcache.demand_avg_miss_latency::total 77382.495039                       # average overall miss latency
system.cpu.dcache.overall_avg_miss_latency::.cpu.data 77382.495039                       # average overall miss latency
system.cpu.dcache.overall_avg_miss_latency::total 77382.495039                       # average overall miss latency
system.cpu.dcache.blocked_cycles::no_mshrs            0                       # number of cycles access was blocked
system.cpu.dcache.blocked_cycles::no_targets            0                       # number of cycles access was blocked
system.cpu.dcache.blocked::no_mshrs                 0                       # number of cycles access was blocked
system.cpu.dcache.blocked::no_targets               0                       # number of cycles access was blocked
system.cpu.dcache.avg_blocked_cycles::no_mshrs          nan                       # average number of cycles each access was blocked
system.cpu.dcache.avg_blocked_cycles::no_targets          nan                       # average number of cycles each access was blocked
system.cpu.dcache.writebacks::.writebacks         4165                       # number of writebacks
system.cpu.dcache.writebacks::total              4165                       # number of writebacks
system.cpu.dcache.demand_mshr_misses::.cpu.data        23182                       # number of demand (read+write) MSHR misses
system.cpu.dcache.demand_mshr_misses::total        23182                       # number of demand (read+write) MSHR misses
system.cpu.dcache.overall_mshr_misses::.cpu.data        23182                       # number of overall MSHR misses
system.cpu.dcache.overall_mshr_misses::total        23182                       # number of overall MSHR misses
system.cpu.dcache.demand_mshr_miss_latency::.cpu.data   1770699000                       # number of demand (read+write) MSHR miss cycles
system.cpu.dcache.demand_mshr_miss_latency::total   1770699000                       # number of demand (read+write) MSHR miss cycles
system.cpu.dcache.overall_mshr_miss_latency::.cpu.data   1770699000                       # number of overall MSHR miss cycles
system.cpu.dcache.overall_mshr_miss_latency::total   1770699000                       # number of overall MSHR miss cycles
system.cpu.dcache.demand_mshr_miss_rate::.cpu.data     0.000455                       # mshr miss rate for demand accesses
system.cpu.dcache.demand_mshr_miss_rate::total     0.000455                       # mshr miss rate for demand accesses
system.cpu.dcache.overall_mshr_miss_rate::.cpu.data     0.000455                       # mshr miss rate for overall accesses
system.cpu.dcache.overall_mshr_miss_rate::total     0.000455                       # mshr miss rate for overall accesses
system.cpu.dcache.demand_avg_mshr_miss_latency::.cpu.data 76382.495039                       # average overall mshr miss latency
system.cpu.dcache.demand_avg_mshr_miss_latency::total 76382.495039                       # average overall mshr miss latency
system.cpu.dcache.overall_avg_mshr_miss_latency::.cpu.data 76382.495039                       # average overall mshr miss latency
system.cpu.dcache.overall_avg_mshr_miss_latency::total 76382.495039                       # average overall mshr miss latency
system.cpu.dcache.replacements                  19086                       # number of replacements
system.cpu.dcache.ReadReq_hits::.cpu.data     42932109                       # number of ReadReq hits
system.cpu.dcache.ReadReq_hits::total        42932109                       # number of ReadReq hits
system.cpu.dcache.ReadReq_misses::.cpu.data        18364                       # number of ReadReq misses
system.cpu.dcache.ReadReq_misses::total         18364                       # number of ReadReq misses
system.cpu.dcache.ReadReq_miss_latency::.cpu.data   1449972000                       # number of ReadReq miss cycles
system.cpu.dcache.ReadReq_miss_latency::total   1449972000                       # number of ReadReq miss cycles
system.cpu.dcache.ReadReq_accesses::.cpu.data     42950473                       # number of ReadReq accesses(hits+misses)
system.cpu.dcache.ReadReq_accesses::total     42950473                       # number of ReadReq accesses(hits+misses)
system.cpu.dcache.ReadReq_miss_rate::.cpu.data     0.000428                       # miss rate for ReadReq accesses
system.cpu.dcache.ReadReq_miss_rate::total     0.000428                       # miss rate for ReadReq accesses
system.cpu.dcache.ReadReq_avg_miss_latency::.cpu.data 78957.307776                       # average ReadReq miss latency
system.cpu.dcache.ReadReq_avg_miss_latency::total 78957.307776                       # average ReadReq miss latency
system.cpu.dcache.ReadReq_mshr_misses::.cpu.data        18364                       # number of ReadReq MSHR misses
system.cpu.dcache.ReadReq_mshr_misses::total        18364                       # number of ReadReq MSHR misses
system.cpu.dcache.ReadReq_mshr_miss_latency::.cpu.data   1431608000                       # number of ReadReq MSHR miss cycles
system.cpu.dcache.ReadReq_mshr_miss_latency::total   1431608000                       # number of ReadReq MSHR miss cycles
system.cpu.dcache.ReadReq_mshr_miss_rate::.cpu.data     0.000428                       # mshr miss rate for ReadReq accesses
system.cpu.dcache.ReadReq_mshr_miss_rate::total     0.000428                       # mshr miss rate for ReadReq accesses
system.cpu.dcache.ReadReq_avg_mshr_miss_latency::.cpu.data 77957.307776                       # average ReadReq mshr miss latency
system.cpu.dcache.ReadReq_avg_mshr_miss_latency::total 77957.307776                       # average ReadReq mshr miss latency
system.cpu.dcache.WriteReq_hits::.cpu.data      7959334                       # number of WriteReq hits
system.cpu.dcache.WriteReq_hits::total        7959334                       # number of WriteReq hits
system.cpu.dcache.WriteReq_misses::.cpu.data         4818                       # number of WriteReq misses
system.cpu.dcache.WriteReq_misses::total         4818                       # number of WriteReq misses
system.cpu.dcache.WriteReq_miss_latency::.cpu.data    343909000                       # number of WriteReq miss cycles
system.cpu.dcache.WriteReq_miss_latency::total    343909000                       # number of WriteReq miss cycles
system.cpu.dcache.WriteReq_accesses::.cpu.data      7964152                       # number of WriteReq accesses(hits+misses)
system.cpu.dcache.WriteReq_accesses::total      7964152                       # number of WriteReq accesses(hits+misses)
system.cpu.dcache.WriteReq_miss_rate::.cpu.data     0.000605                       # miss rate for WriteReq accesses
system.cpu.dcache.WriteReq_miss_rate::total     0.000605                       # miss rate for WriteReq accesses
system.cpu.dcache.WriteReq_avg_miss_latency::.cpu.data 71380.033209                       # average WriteReq miss latency
system.cpu.dcache.WriteReq_avg_miss_latency::total 71380.033209                       # average WriteReq miss latency
system.cpu.dcache.WriteReq_mshr_misses::.cpu.data         4818                       # number of WriteReq MSHR misses
system.cpu.dcache.WriteReq_mshr_misses::total         4818                       # number of WriteReq MSHR misses
system.cpu.dcache.WriteReq_mshr_miss_latency::.cpu.data    339091000                       # number of WriteReq MSHR miss cycles
system.cpu.dcache.WriteReq_mshr_miss_latency::total    339091000                       # number of WriteReq MSHR miss cycles
system.cpu.dcache.WriteReq_mshr_miss_rate::.cpu.data     0.000605                       # mshr miss rate for WriteReq accesses
system.cpu.dcache.WriteReq_mshr_miss_rate::total     0.000605                       # mshr miss rate for WriteReq accesses
system.cpu.dcache.WriteReq_avg_mshr_miss_latency::.cpu.data 70380.033209                       # average WriteReq mshr miss latency
system.cpu.dcache.WriteReq_avg_mshr_miss_latency::total 70380.033209                       # average WriteReq mshr miss latency
system.cpu.dcache.power_state.pwrStateResidencyTicks::UNDEFINED 187753351500                       # Cumulative time (in ticks) in various power states
system.cpu.dcache.tags.tagsinuse          4086.203000                       # Cycle average of tags in use
system.cpu.dcache.tags.total_refs            50914625                       # Total number of references to valid blocks.
system.cpu.dcache.tags.sampled_refs             23182                       # Sample count of references to valid blocks.
system.cpu.dcache.tags.avg_refs           2196.299931                       # Average number of references to valid blocks.
system.cpu.dcache.tags.warmup_cycle            174500                       # Cycle when the warmup percentage was hit.
system.cpu.dcache.tags.occ_blocks::.cpu.data  4086.203000                       # Average occupied blocks per requestor
system.cpu.dcache.tags.occ_percent::.cpu.data     0.997608                       # Average percentage of cache occupancy
system.cpu.dcache.tags.occ_percent::total     0.997608                       # Average percentage of cache occupancy
system.cpu.dcache.tags.occ_task_id_blocks::1024         4096                       # Occupied blocks per task id
system.cpu.dcache.tags.age_task_id_blocks_1024::1            1                       # Occupied blocks per task id
system.cpu.dcache.tags.age_task_id_blocks_1024::2            1                       # Occupied blocks per task id
system.cpu.dcache.tags.age_task_id_blocks_1024::4         4094                       # Occupied blocks per task id
system.cpu.dcache.tags.occ_task_id_percent::1024            1                       # Percentage of cache occupancy per task id
system.cpu.dcache.tags.tag_accesses         101852432                       # Number of tag accesses
system.cpu.dcache.tags.data_accesses        101852432                       # Number of data accesses
system.cpu.dcache.tags.power_state.pwrStateResidencyTicks::UNDEFINED 187753351500                       # Cumulative time (in ticks) in various power states
system.cpu.dtb.rdAccesses                    42950693                       # TLB accesses on read requests
system.cpu.dtb.wrAccesses                     7964190                       # TLB accesses on write requests
system.cpu.dtb.rdMisses                          1293                       # TLB misses on read requests
system.cpu.dtb.wrMisses                           115                       # TLB misses on write requests
system.cpu.dtb.walker.power_state.pwrStateResidencyTicks::UNDEFINED 187753351500                       # Cumulative time (in ticks) in various power states
system.cpu.dtb_walker_cache.blocked_cycles::no_mshrs            0                       # number of cycles access was blocked
system.cpu.dtb_walker_cache.blocked_cycles::no_targets            0                       # number of cycles access was blocked
system.cpu.dtb_walker_cache.blocked::no_mshrs            0                       # number of cycles access was blocked
system.cpu.dtb_walker_cache.blocked::no_targets            0                       # number of cycles access was blocked
system.cpu.dtb_walker_cache.avg_blocked_cycles::no_mshrs          nan                       # average number of cycles each access was blocked
system.cpu.dtb_walker_cache.avg_blocked_cycles::no_targets          nan                       # average number of cycles each access was blocked
system.cpu.dtb_walker_cache.replacements            0                       # number of replacements
system.cpu.dtb_walker_cache.power_state.pwrStateResidencyTicks::UNDEFINED 187753351500                       # Cumulative time (in ticks) in various power states
system.cpu.dtb_walker_cache.tags.tagsinuse            0                       # Cycle average of tags in use
system.cpu.dtb_walker_cache.tags.total_refs            0                       # Total number of references to valid blocks.
system.cpu.dtb_walker_cache.tags.sampled_refs            0                       # Sample count of references to valid blocks.
system.cpu.dtb_walker_cache.tags.avg_refs          nan                       # Average number of references to valid blocks.
system.cpu.dtb_walker_cache.tags.warmup_cycle            0                       # Cycle when the warmup percentage was hit.
system.cpu.dtb_walker_cache.tags.tag_accesses            0                       # Number of tag accesses
system.cpu.dtb_walker_cache.tags.data_accesses            0                       # Number of data accesses
system.cpu.dtb_walker_cache.tags.power_state.pwrStateResidencyTicks::UNDEFINED 187753351500                       # Cumulative time (in ticks) in various power states
system.cpu.icache.demand_hits::.cpu.inst    134834550                       # number of demand (read+write) hits
system.cpu.icache.demand_hits::total        134834550                       # number of demand (read+write) hits
system.cpu.icache.overall_hits::.cpu.inst    134834550                       # number of overall hits
system.cpu.icache.overall_hits::total       134834550                       # number of overall hits
system.cpu.icache.demand_misses::.cpu.inst         3013                       # number of demand (read+write) misses
system.cpu.icache.demand_misses::total           3013                       # number of demand (read+write) misses
system.cpu.icache.overall_misses::.cpu.inst         3013                       # number of overall misses
system.cpu.icache.overall_misses::total          3013                       # number of overall misses
system.cpu.icache.demand_miss_latency::.cpu.inst    234305500                       # number of demand (read+write) miss cycles
system.cpu.icache.demand_miss_latency::total    234305500                       # number of demand (read+write) miss cycles
system.cpu.icache.overall_miss_latency::.cpu.inst    234305500                       # number of overall miss cycles
system.cpu.icache.overall_miss_latency::total    234305500                       # number of overall miss cycles
system.cpu.icache.demand_accesses::.cpu.inst    134837563                       # number of demand (read+write) accesses
system.cpu.icache.demand_accesses::total    134837563                       # number of demand (read+write) accesses
system.cpu.icache.overall_accesses::.cpu.inst    134837563                       # number of overall (read+write) accesses
system.cpu.icache.overall_accesses::total    134837563                       # number of overall (read+write) accesses
system.cpu.icache.demand_miss_rate::.cpu.inst     0.000022                       # miss rate for demand accesses
system.cpu.icache.demand_miss_rate::total     0.000022                       # miss rate for demand accesses
system.cpu.icache.overall_miss_rate::.cpu.inst     0.000022                       # miss rate for overall accesses
system.cpu.icache.overall_miss_rate::total     0.000022                       # miss rate for overall accesses
system.cpu.icache.demand_avg_miss_latency::.cpu.inst 77764.852307                       # average overall miss latency
system.cpu.icache.demand_avg_miss_latency::total 77764.852307                       # average overall miss latency
system.cpu.icache.overall_avg_miss_latency::.cpu.inst 77764.852307                       # average overall miss latency
system.cpu.icache.overall_avg_miss_latency::total 77764.852307                       # average overall miss latency
system.cpu.icache.blocked_cycles::no_mshrs            0                       # number of cycles access was blocked
system.cpu.icache.blocked_cycles::no_targets            0                       # number of cycles access was blocked
system.cpu.icache.blocked::no_mshrs                 0                       # number of cycles access was blocked
system.cpu.icache.blocked::no_targets               0                       # number of cycles access was blocked
system.cpu.icache.avg_blocked_cycles::no_mshrs          nan                       # average number of cycles each access was blocked
system.cpu.icache.avg_blocked_cycles::no_targets          nan                       # average number of cycles each access was blocked
system.cpu.icache.writebacks::.writebacks          501                       # number of writebacks
system.cpu.icache.writebacks::total               501                       # number of writebacks
system.cpu.icache.demand_mshr_misses::.cpu.inst         3013                       # number of demand (read+write) MSHR misses
system.cpu.icache.demand_mshr_misses::total         3013                       # number of demand (read+write) MSHR misses
system.cpu.icache.overall_mshr_misses::.cpu.inst         3013                       # number of overall MSHR misses
system.cpu.icache.overall_mshr_misses::total         3013                       # number of overall MSHR misses
system.cpu.icache.demand_mshr_miss_latency::.cpu.inst    231292500                       # number of demand (read+write) MSHR miss cycles
system.cpu.icache.demand_mshr_miss_latency::total    231292500                       # number of demand (read+write) MSHR miss cycles
system.cpu.icache.overall_mshr_miss_latency::.cpu.inst    231292500                       # number of overall MSHR miss cycles
system.cpu.icache.overall_mshr_miss_latency::total    231292500                       # number of overall MSHR miss cycles
system.cpu.icache.demand_mshr_miss_rate::.cpu.inst     0.000022                       # mshr miss rate for demand accesses
system.cpu.icache.demand_mshr_miss_rate::total     0.000022                       # mshr miss rate for demand accesses
system.cpu.icache.overall_mshr_miss_rate::.cpu.inst     0.000022                       # mshr miss rate for overall accesses
system.cpu.icache.overall_mshr_miss_rate::total     0.000022                       # mshr miss rate for overall accesses
system.cpu.icache.demand_avg_mshr_miss_latency::.cpu.inst 76764.852307                       # average overall mshr miss latency
system.cpu.icache.demand_avg_mshr_miss_latency::total 76764.852307                       # average overall mshr miss latency
system.cpu.icache.overall_avg_mshr_miss_latency::.cpu.inst 76764.852307                       # average overall mshr miss latency
system.cpu.icache.overall_avg_mshr_miss_latency::total 76764.852307                       # average overall mshr miss latency
system.cpu.icache.replacements                    501                       # number of replacements
system.cpu.icache.ReadReq_hits::.cpu.inst    134834550                       # number of ReadReq hits
system.cpu.icache.ReadReq_hits::total       134834550                       # number of ReadReq hits
system.cpu.icache.ReadReq_misses::.cpu.inst         3013                       # number of ReadReq misses
system.cpu.icache.ReadReq_misses::total          3013                       # number of ReadReq misses
system.cpu.icache.ReadReq_miss_latency::.cpu.inst    234305500                       # number of ReadReq miss cycles
system.cpu.icache.ReadReq_miss_latency::total    234305500                       # number of ReadReq miss cycles
system.cpu.icache.ReadReq_accesses::.cpu.inst    134837563                       # number of ReadReq accesses(hits+misses)
system.cpu.icache.ReadReq_accesses::total    134837563                       # number of ReadReq accesses(hits+misses)
system.cpu.icache.ReadReq_miss_rate::.cpu.inst     0.000022                       # miss rate for ReadReq accesses
system.cpu.icache.ReadReq_miss_rate::total     0.000022                       # miss rate for ReadReq accesses
system.cpu.icache.ReadReq_avg_miss_latency::.cpu.inst 77764.852307                       # average ReadReq miss latency
system.cpu.icache.ReadReq_avg_miss_latency::total 77764.852307                       # average ReadReq miss latency
system.cpu.icache.ReadReq_mshr_misses::.cpu.inst         3013                       # number of ReadReq MSHR misses
system.cpu.icache.ReadReq_mshr_misses::total         3013                       # number of ReadReq MSHR misses
system.cpu.icache.ReadReq_mshr_miss_latency::.cpu.inst    231292500                       # number of ReadReq MSHR miss cycles
system.cpu.icache.ReadReq_mshr_miss_latency::total    231292500                       # number of ReadReq MSHR miss cycles
system.cpu.icache.ReadReq_mshr_miss_rate::.cpu.inst     0.000022                       # mshr miss rate for ReadReq accesses
system.cpu.icache.ReadReq_mshr_miss_rate::total     0.000022                       # mshr miss rate for ReadReq accesses
system.cpu.icache.ReadReq_avg_mshr_miss_latency::.cpu.inst 76764.852307                       # average ReadReq mshr miss latency
system.cpu.icache.ReadReq_avg_mshr_miss_latency::total 76764.852307                       # average ReadReq mshr miss latency
system.cpu.icache.power_state.pwrStateResidencyTicks::UNDEFINED 187753351500                       # Cumulative time (in ticks) in various power states
system.cpu.icache.tags.tagsinuse          2475.146182                       # Cycle average of tags in use
system.cpu.icache.tags.total_refs           134837563                       # Total number of references to valid blocks.
system.cpu.icache.tags.sampled_refs              3013                       # Sample count of references to valid blocks.
system.cpu.icache.tags.avg_refs          44751.929306                       # Average number of references to valid blocks.
system.cpu.icache.tags.warmup_cycle             87500                       # Cycle when the warmup percentage was hit.
system.cpu.icache.tags.occ_blocks::.cpu.inst  2475.146182                       # Average occupied blocks per requestor
system.cpu.icache.tags.occ_percent::.cpu.inst     0.604284                       # Average percentage of cache occupancy
system.cpu.icache.tags.occ_percent::total     0.604284                       # Average percentage of cache occupancy
system.cpu.icache.tags.occ_task_id_blocks::1024         2512                       # Occupied blocks per task id
system.cpu.icache.tags.age_task_id_blocks_1024::4         2512                       # Occupied blocks per task id
system.cpu.icache.tags.occ_task_id_percent::1024     0.613281                       # Percentage of cache occupancy per task id
system.cpu.icache.tags.tag_accesses         269678139                       # Number of tag accesses
system.cpu.icache.tags.data_accesses        269678139                       # Number of data accesses
system.cpu.icache.tags.power_state.pwrStateResidencyTicks::UNDEFINED 187753351500                       # Cumulative time (in ticks) in various power states
system.cpu.interrupts.clk_domain.clock           8000                       # Clock period in ticks
system.cpu.itb.rdAccesses                           0                       # TLB accesses on read requests
system.cpu.itb.wrAccesses                   134837674                       # TLB accesses on write requests
system.cpu.itb.rdMisses                             0                       # TLB misses on read requests
system.cpu.itb.wrMisses                           376                       # TLB misses on write requests
system.cpu.itb.walker.power_state.pwrStateResidencyTicks::UNDEFINED 187753351500                       # Cumulative time (in ticks) in various power states
system.cpu.itb_walker_cache.blocked_cycles::no_mshrs            0                       # number of cycles access was blocked
system.cpu.itb_walker_cache.blocked_cycles::no_targets            0                       # number of cycles access was blocked
system.cpu.itb_walker_cache.blocked::no_mshrs            0                       # number of cycles access was blocked
system.cpu.itb_walker_cache.blocked::no_targets            0                       # number of cycles access was blocked
system.cpu.itb_walker_cache.avg_blocked_cycles::no_mshrs          nan                       # average number of cycles each access was blocked
system.cpu.itb_walker_cache.avg_blocked_cycles::no_targets          nan                       # average number of cycles each access was blocked
system.cpu.itb_walker_cache.replacements            0                       # number of replacements
system.cpu.itb_walker_cache.power_state.pwrStateResidencyTicks::UNDEFINED 187753351500                       # Cumulative time (in ticks) in various power states
system.cpu.itb_walker_cache.tags.tagsinuse            0                       # Cycle average of tags in use
system.cpu.itb_walker_cache.tags.total_refs            0                       # Total number of references to valid blocks.
system.cpu.itb_walker_cache.tags.sampled_refs            0                       # Sample count of references to valid blocks.
system.cpu.itb_walker_cache.tags.avg_refs          nan                       # Average number of references to valid blocks.
system.cpu.itb_walker_cache.tags.warmup_cycle            0                       # Cycle when the warmup percentage was hit.
system.cpu.itb_walker_cache.tags.tag_accesses            0                       # Number of tag accesses
system.cpu.itb_walker_cache.tags.data_accesses            0                       # Number of data accesses
system.cpu.itb_walker_cache.tags.power_state.pwrStateResidencyTicks::UNDEFINED 187753351500                       # Cumulative time (in ticks) in various power states
system.cpu.power_state.pwrStateResidencyTicks::ON 187753351500                       # Cumulative time (in ticks) in various power states
system.cpu.thread_0.numInsts                        0                       # Number of Instructions committed
system.cpu.thread_0.numOps                          0                       # Number of Ops committed
system.cpu.thread_0.numMemRefs                      0                       # Number of Memory References
system.cpu_clk_domain.clock                       500                       # Clock period in ticks
system.cpu_voltage_domain.voltage                   1                       # Voltage in Volts
system.l2.demand_hits::.cpu.inst                    9                       # number of demand (read+write) hits
system.l2.demand_hits::.cpu.data                 1801                       # number of demand (read+write) hits
system.l2.demand_hits::total                     1810                       # number of demand (read+write) hits
system.l2.overall_hits::.cpu.inst                   9                       # number of overall hits
system.l2.overall_hits::.cpu.data                1801                       # number of overall hits
system.l2.overall_hits::total                    1810                       # number of overall hits
system.l2.demand_misses::.cpu.inst               3004                       # number of demand (read+write) misses
system.l2.demand_misses::.cpu.data              21381                       # number of demand (read+write) misses
system.l2.demand_misses::total                  24385                       # number of demand (read+write) misses
system.l2.overall_misses::.cpu.inst              3004                       # number of overall misses
system.l2.overall_misses::.cpu.data             21381                       # number of overall misses
system.l2.overall_misses::total                 24385                       # number of overall misses
system.l2.demand_miss_latency::.cpu.inst    226678500                       # number of demand (read+write) miss cycles
system.l2.demand_miss_latency::.cpu.data   1717011500                       # number of demand (read+write) miss cycles
system.l2.demand_miss_latency::total       1943690000                       # number of demand (read+write) miss cycles
system.l2.overall_miss_latency::.cpu.inst    226678500                       # number of overall miss cycles
system.l2.overall_miss_latency::.cpu.data   1717011500                       # number of overall miss cycles
system.l2.overall_miss_latency::total      1943690000                       # number of overall miss cycles
system.l2.demand_accesses::.cpu.inst             3013                       # number of demand (read+write) accesses
system.l2.demand_accesses::.cpu.data            23182                       # number of demand (read+write) accesses
system.l2.demand_accesses::total                26195                       # number of demand (read+write) accesses
system.l2.overall_accesses::.cpu.inst            3013                       # number of overall (read+write) accesses
system.l2.overall_accesses::.cpu.data           23182                       # number of overall (read+write) accesses
system.l2.overall_accesses::total               26195                       # number of overall (read+write) accesses
system.l2.demand_miss_rate::.cpu.inst        0.997013                       # miss rate for demand accesses
system.l2.demand_miss_rate::.cpu.data        0.922310                       # miss rate for demand accesses
system.l2.demand_miss_rate::total            0.930903                       # miss rate for demand accesses
system.l2.overall_miss_rate::.cpu.inst       0.997013                       # miss rate for overall accesses
system.l2.overall_miss_rate::.cpu.data       0.922310                       # miss rate for overall accesses
system.l2.overall_miss_rate::total           0.930903                       # miss rate for overall accesses
system.l2.demand_avg_miss_latency::.cpu.inst 75458.888149                       # average overall miss latency
system.l2.demand_avg_miss_latency::.cpu.data 80305.481502                       # average overall miss latency
system.l2.demand_avg_miss_latency::total 79708.427312                       # average overall miss latency
system.l2.overall_avg_miss_latency::.cpu.inst 75458.888149                       # average overall miss latency
system.l2.overall_avg_miss_latency::.cpu.data 80305.481502                       # average overall miss latency
system.l2.overall_avg_miss_latency::total 79708.427312                       # average overall miss latency
system.l2.blocked_cycles::no_mshrs                  0                       # number of cycles access was blocked
system.l2.blocked_cycles::no_targets                0                       # number of cycles access was blocked
system.l2.blocked::no_mshrs                         0                       # number of cycles access was blocked
system.l2.blocked::no_targets                       0                       # number of cycles access was blocked
system.l2.avg_blocked_cycles::no_mshrs            nan                       # average number of cycles each access was blocked
system.l2.avg_blocked_cycles::no_targets          nan                       # average number of cycles each access was blocked
system.l2.writebacks::.writebacks                2908                       # number of writebacks
system.l2.writebacks::total                      2908                       # number of writebacks
system.l2.demand_mshr_misses::.cpu.inst          3004                       # number of demand (read+write) MSHR misses
system.l2.demand_mshr_misses::.cpu.data         21381                       # number of demand (read+write) MSHR misses
system.l2.demand_mshr_misses::total             24385                       # number of demand (read+write) MSHR misses
system.l2.overall_mshr_misses::.cpu.inst         3004                       # number of overall MSHR misses
system.l2.overall_mshr_misses::.cpu.data        21381                       # number of overall MSHR misses
system.l2.overall_mshr_misses::total            24385                       # number of overall MSHR misses
system.l2.demand_mshr_miss_latency::.cpu.inst    196638500                       # number of demand (read+write) MSHR miss cycles
system.l2.demand_mshr_miss_latency::.cpu.data   1503201500                       # number of demand (read+write) MSHR miss cycles
system.l2.demand_mshr_miss_latency::total   1699840000                       # number of demand (read+write) MSHR miss cycles
system.l2.overall_mshr_miss_latency::.cpu.inst    196638500                       # number of overall MSHR miss cycles
system.l2.overall_mshr_miss_latency::.cpu.data   1503201500                       # number of overall MSHR miss cycles
system.l2.overall_mshr_miss_latency::total   1699840000                       # number of overall MSHR miss cycles
system.l2.demand_mshr_miss_rate::.cpu.inst     0.997013                       # mshr miss rate for demand accesses
system.l2.demand_mshr_miss_rate::.cpu.data     0.922310                       # mshr miss rate for demand accesses
system.l2.demand_mshr_miss_rate::total       0.930903                       # mshr miss rate for demand accesses
system.l2.overall_mshr_miss_rate::.cpu.inst     0.997013                       # mshr miss rate for overall accesses
system.l2.overall_mshr_miss_rate::.cpu.data     0.922310                       # mshr miss rate for overall accesses
system.l2.overall_mshr_miss_rate::total      0.930903                       # mshr miss rate for overall accesses
system.l2.demand_avg_mshr_miss_latency::.cpu.inst 65458.888149                       # average overall mshr miss latency
system.l2.demand_avg_mshr_miss_latency::.cpu.data 70305.481502                       # average overall mshr miss latency
system.l2.demand_avg_mshr_miss_latency::total 69708.427312                       # average overall mshr miss latency
system.l2.overall_avg_mshr_miss_latency::.cpu.inst 65458.888149                       # average overall mshr miss latency
system.l2.overall_avg_mshr_miss_latency::.cpu.data 70305.481502                       # average overall mshr miss latency
system.l2.overall_avg_mshr_miss_latency::total 69708.427312                       # average overall mshr miss latency
system.l2.replacements                          23272                       # number of replacements
system.l2.WritebackDirty_hits::.writebacks         4165                       # number of WritebackDirty hits
system.l2.WritebackDirty_hits::total             4165                       # number of WritebackDirty hits
system.l2.WritebackDirty_accesses::.writebacks         4165                       # number of WritebackDirty accesses(hits+misses)
system.l2.WritebackDirty_accesses::total         4165                       # number of WritebackDirty accesses(hits+misses)
system.l2.WritebackClean_hits::.writebacks          501                       # number of WritebackClean hits
system.l2.WritebackClean_hits::total              501                       # number of WritebackClean hits
system.l2.WritebackClean_accesses::.writebacks          501                       # number of WritebackClean accesses(hits+misses)
system.l2.WritebackClean_accesses::total          501                       # number of WritebackClean accesses(hits+misses)
system.l2.CleanEvict_mshr_misses::.writebacks        10070                       # number of CleanEvict MSHR misses
system.l2.CleanEvict_mshr_misses::total         10070                       # number of CleanEvict MSHR misses
system.l2.CleanEvict_mshr_miss_rate::.writebacks          inf                       # mshr miss rate for CleanEvict accesses
system.l2.CleanEvict_mshr_miss_rate::total          inf                       # mshr miss rate for CleanEvict accesses
system.l2.ReadExReq_hits::.cpu.data               615                       # number of ReadExReq hits
system.l2.ReadExReq_hits::total                   615                       # number of ReadExReq hits
system.l2.ReadExReq_misses::.cpu.data            4203                       # number of ReadExReq misses
system.l2.ReadExReq_misses::total                4203                       # number of ReadExReq misses
system.l2.ReadExReq_miss_latency::.cpu.data    325406500                       # number of ReadExReq miss cycles
system.l2.ReadExReq_miss_latency::total     325406500                       # number of ReadExReq miss cycles
system.l2.ReadExReq_accesses::.cpu.data          4818                       # number of ReadExReq accesses(hits+misses)
system.l2.ReadExReq_accesses::total              4818                       # number of ReadExReq accesses(hits+misses)
system.l2.ReadExReq_miss_rate::.cpu.data     0.872354                       # miss rate for ReadExReq accesses
system.l2.ReadExReq_miss_rate::total         0.872354                       # miss rate for ReadExReq accesses
system.l2.ReadExReq_avg_miss_latency::.cpu.data 77422.436355                       # average ReadExReq miss latency
system.l2.ReadExReq_avg_miss_latency::total 77422.436355                       # average ReadExReq miss latency
system.l2.ReadExReq_mshr_misses::.cpu.data         4203                       # number of ReadExReq MSHR misses
system.l2.ReadExReq_mshr_misses::total           4203                       # number of ReadExReq MSHR misses
system.l2.ReadExReq_mshr_miss_latency::.cpu.data    283376500                       # number of ReadExReq MSHR miss cycles
system.l2.ReadExReq_mshr_miss_latency::total    283376500                       # number of ReadExReq MSHR miss cycles
system.l2.ReadExReq_mshr_miss_rate::.cpu.data     0.872354                       # mshr miss rate for ReadExReq accesses
system.l2.ReadExReq_mshr_miss_rate::total     0.872354                       # mshr miss rate for ReadExReq accesses
system.l2.ReadExReq_avg_mshr_miss_latency::.cpu.data 67422.436355                       # average ReadExReq mshr miss latency
system.l2.ReadExReq_avg_mshr_miss_latency::total 67422.436355                       # average ReadExReq mshr miss latency
system.l2.ReadCleanReq_hits::.cpu.inst              9                       # number of ReadCleanReq hits
system.l2.ReadCleanReq_hits::total                  9                       # number of ReadCleanReq hits
system.l2.ReadCleanReq_misses::.cpu.inst         3004                       # number of ReadCleanReq misses
system.l2.ReadCleanReq_misses::total             3004                       # number of ReadCleanReq misses
system.l2.ReadCleanReq_miss_latency::.cpu.inst    226678500                       # number of ReadCleanReq miss cycles
system.l2.ReadCleanReq_miss_latency::total    226678500                       # number of ReadCleanReq miss cycles
system.l2.ReadCleanReq_accesses::.cpu.inst         3013                       # number of ReadCleanReq accesses(hits+misses)
system.l2.ReadCleanReq_accesses::total           3013                       # number of ReadCleanReq accesses(hits+misses)
system.l2.ReadCleanReq_miss_rate::.cpu.inst     0.997013                       # miss rate for ReadCleanReq accesses
system.l2.ReadCleanReq_miss_rate::total      0.997013                       # miss rate for ReadCleanReq accesses
system.l2.ReadCleanReq_avg_miss_latency::.cpu.inst 75458.888149                       # average ReadCleanReq miss latency
system.l2.ReadCleanReq_avg_miss_latency::total 75458.888149                       # average ReadCleanReq miss latency
system.l2.ReadCleanReq_mshr_misses::.cpu.inst         3004                       # number of ReadCleanReq MSHR misses
system.l2.ReadCleanReq_mshr_misses::total         3004                       # number of ReadCleanReq MSHR misses
system.l2.ReadCleanReq_mshr_miss_latency::.cpu.inst    196638500                       # number of ReadCleanReq MSHR miss cycles
system.l2.ReadCleanReq_mshr_miss_latency::total    196638500                       # number of ReadCleanReq MSHR miss cycles
system.l2.ReadCleanReq_mshr_miss_rate::.cpu.inst     0.997013                       # mshr miss rate for ReadCleanReq accesses
system.l2.ReadCleanReq_mshr_miss_rate::total     0.997013                       # mshr miss rate for ReadCleanReq accesses
system.l2.ReadCleanReq_avg_mshr_miss_latency::.cpu.inst 65458.888149                       # average ReadCleanReq mshr miss latency
system.l2.ReadCleanReq_avg_mshr_miss_latency::total 65458.888149                       # average ReadCleanReq mshr miss latency
system.l2.ReadSharedReq_hits::.cpu.data          1186                       # number of ReadSharedReq hits
system.l2.ReadSharedReq_hits::total              1186                       # number of ReadSharedReq hits
system.l2.ReadSharedReq_misses::.cpu.data        17178                       # number of ReadSharedReq misses
system.l2.ReadSharedReq_misses::total           17178                       # number of ReadSharedReq misses
system.l2.ReadSharedReq_miss_latency::.cpu.data   1391605000                       # number of ReadSharedReq miss cycles
system.l2.ReadSharedReq_miss_latency::total   1391605000                       # number of ReadSharedReq miss cycles
system.l2.ReadSharedReq_accesses::.cpu.data        18364                       # number of ReadSharedReq accesses(hits+misses)
system.l2.ReadSharedReq_accesses::total         18364                       # number of ReadSharedReq accesses(hits+misses)
system.l2.ReadSharedReq_miss_rate::.cpu.data     0.935417                       # miss rate for ReadSharedReq accesses
system.l2.ReadSharedReq_miss_rate::total     0.935417                       # miss rate for ReadSharedReq accesses
system.l2.ReadSharedReq_avg_miss_latency::.cpu.data 81010.886017                       # average ReadSharedReq miss latency
system.l2.ReadSharedReq_avg_miss_latency::total 81010.886017                       # average ReadSharedReq miss latency
system.l2.ReadSharedReq_mshr_misses::.cpu.data        17178                       # number of ReadSharedReq MSHR misses
system.l2.ReadSharedReq_mshr_misses::total        17178                       # number of ReadSharedReq MSHR misses
system.l2.ReadSharedReq_mshr_miss_latency::.cpu.data   1219825000                       # number of ReadSharedReq MSHR miss cycles
system.l2.ReadSharedReq_mshr_miss_latency::total   1219825000                       # number of ReadSharedReq MSHR miss cycles
system.l2.ReadSharedReq_mshr_miss_rate::.cpu.data     0.935417                       # mshr miss rate for ReadSharedReq accesses
system.l2.ReadSharedReq_mshr_miss_rate::total     0.935417                       # mshr miss rate for ReadSharedReq accesses
system.l2.ReadSharedReq_avg_mshr_miss_latency::.cpu.data 71010.886017                       # average ReadSharedReq mshr miss latency
system.l2.ReadSharedReq_avg_mshr_miss_latency::total 71010.886017                       # average ReadSharedReq mshr miss latency
system.l2.power_state.pwrStateResidencyTicks::UNDEFINED 187753351500                       # Cumulative time (in ticks) in various power states
system.l2.tags.tagsinuse                  4090.269360                       # Cycle average of tags in use
system.l2.tags.total_refs                       35712                       # Total number of references to valid blocks.
system.l2.tags.sampled_refs                     27368                       # Sample count of references to valid blocks.
system.l2.tags.avg_refs                      1.304882                       # Average number of references to valid blocks.
system.l2.tags.warmup_cycle                     77000                       # Cycle when the warmup percentage was hit.
system.l2.tags.occ_blocks::.writebacks     450.101001                       # Average occupied blocks per requestor
system.l2.tags.occ_blocks::.cpu.inst      1073.794292                       # Average occupied blocks per requestor
system.l2.tags.occ_blocks::.cpu.data      2566.374067                       # Average occupied blocks per requestor
system.l2.tags.occ_percent::.writebacks      0.109888                       # Average percentage of cache occupancy
system.l2.tags.occ_percent::.cpu.inst        0.262157                       # Average percentage of cache occupancy
system.l2.tags.occ_percent::.cpu.data        0.626556                       # Average percentage of cache occupancy
system.l2.tags.occ_percent::total            0.998601                       # Average percentage of cache occupancy
system.l2.tags.occ_task_id_blocks::1024          4096                       # Occupied blocks per task id
system.l2.tags.age_task_id_blocks_1024::4         4096                       # Occupied blocks per task id
system.l2.tags.occ_task_id_percent::1024            1                       # Percentage of cache occupancy per task id
system.l2.tags.tag_accesses                    210496                       # Number of tag accesses
system.l2.tags.data_accesses                   210496                       # Number of data accesses
system.l2.tags.power_state.pwrStateResidencyTicks::UNDEFINED 187753351500                       # Cumulative time (in ticks) in various power states
system.mem_ctrls.avgPriority_.writebacks::samples      2682.00                       # Average QoS priority value for accepted requests
system.mem_ctrls.avgPriority_.cpu.inst::samples      3004.00                       # Average QoS priority value for accepted requests
system.mem_ctrls.avgPriority_.cpu.data::samples     21368.00                       # Average QoS priority value for accepted requests
system.mem_ctrls.priorityMinLatency      0.000000018750                       # per QoS priority minimum request to response latency (s)
system.mem_ctrls.priorityMaxLatency      0.001069056500                       # per QoS priority maximum request to response latency (s)
system.mem_ctrls.numReadWriteTurnArounds          156                       # Number of turnarounds from READ to WRITE
system.mem_ctrls.numWriteReadTurnArounds          156                       # Number of turnarounds from WRITE to READ
system.mem_ctrls.numStayReadState               99793                       # Number of times bus staying in READ state
system.mem_ctrls.numStayWriteState               2502                       # Number of times bus staying in WRITE state
system.mem_ctrls.readReqs                       24385                       # Number of read requests accepted
system.mem_ctrls.writeReqs                       2908                       # Number of write requests accepted
system.mem_ctrls.readBursts                     24385                       # Number of controller read bursts, including those serviced by the write queue
system.mem_ctrls.writeBursts                     2908                       # Number of controller write bursts, including those merged in the write queue
system.mem_ctrls.servicedByWrQ                     13                       # Number of controller read bursts serviced by the write queue
system.mem_ctrls.mergedWrBursts                   226                       # Number of controller write bursts merged with an existing one
system.mem_ctrls.neitherReadNorWriteReqs            0                       # Number of requests that are neither read nor write
system.mem_ctrls.avgRdQLen                       1.00                       # Average read queue length when enqueuing
system.mem_ctrls.avgWrQLen                      25.90                       # Average write queue length when enqueuing
system.mem_ctrls.numRdRetry                         0                       # Number of times read queue was full causing retry
system.mem_ctrls.numWrRetry                         0                       # Number of times write queue was full causing retry
system.mem_ctrls.readPktSize::0                     0                       # Read request sizes (log2)
system.mem_ctrls.readPktSize::1                     0                       # Read request sizes (log2)
system.mem_ctrls.readPktSize::2                     0                       # Read request sizes (log2)
system.mem_ctrls.readPktSize::3                     0                       # Read request sizes (log2)
system.mem_ctrls.readPktSize::4                     0                       # Read request sizes (log2)
system.mem_ctrls.readPktSize::5                 24385                       # Read request sizes (log2)
system.mem_ctrls.writePktSize::0                    0                       # Write request sizes (log2)
system.mem_ctrls.writePktSize::1                    0                       # Write request sizes (log2)
system.mem_ctrls.writePktSize::2                    0                       # Write request sizes (log2)
system.mem_ctrls.writePktSize::3                    0                       # Write request sizes (log2)
system.mem_ctrls.writePktSize::4                    0                       # Write request sizes (log2)
system.mem_ctrls.writePktSize::5                 2908                       # Write request sizes (log2)
system.mem_ctrls.rdQLenPdf::0                   24364                       # What read queue length does an incoming req see
system.mem_ctrls.rdQLenPdf::1                       8                       # What read queue length does an incoming req see
system.mem_ctrls.rdQLenPdf::2                       0                       # What read queue length does an incoming req see
system.mem_ctrls.rdQLenPdf::3                       0                       # What read queue length does an incoming req see
system.mem_ctrls.rdQLenPdf::4                       0                       # What read queue length does an incoming req see
system.mem_ctrls.rdQLenPdf::5                       0                       # What read queue length does an incoming req see
system.mem_ctrls.rdQLenPdf::6                       0                       # What read queue length does an incoming req see
system.mem_ctrls.rdQLenPdf::7                       0                       # What read queue length does an incoming req see
system.mem_ctrls.rdQLenPdf::8                       0                       # What read queue length does an incoming req see
system.mem_ctrls.rdQLenPdf::9                       0                       # What read queue length does an incoming req see
system.mem_ctrls.rdQLenPdf::10                      0                       # What read queue length does an incoming req see
system.mem_ctrls.rdQLenPdf::11                      0                       # What read queue length does an incoming req see
system.mem_ctrls.rdQLenPdf::12                      0                       # What read queue length does an incoming req see
system.mem_ctrls.rdQLenPdf::13                      0                       # What read queue length does an incoming req see
system.mem_ctrls.rdQLenPdf::14                      0                       # What read queue length does an incoming req see
system.mem_ctrls.rdQLenPdf::15                      0                       # What read queue length does an incoming req see
system.mem_ctrls.rdQLenPdf::16                      0                       # What read queue length does an incoming req see
system.mem_ctrls.rdQLenPdf::17                      0                       # What read queue length does an incoming req see
system.mem_ctrls.rdQLenPdf::18                      0                       # What read queue length does an incoming req see
system.mem_ctrls.rdQLenPdf::19                      0                       # What read queue length does an incoming req see
system.mem_ctrls.rdQLenPdf::20                      0                       # What read queue length does an incoming req see
system.mem_ctrls.rdQLenPdf::21                      0                       # What read queue length does an incoming req see
system.mem_ctrls.rdQLenPdf::22                      0                       # What read queue length does an incoming req see
system.mem_ctrls.rdQLenPdf::23                      0                       # What read queue length does an incoming req see
system.mem_ctrls.rdQLenPdf::24                      0                       # What read queue length does an incoming req see
system.mem_ctrls.rdQLenPdf::25                      0                       # What read queue length does an incoming req see
system.mem_ctrls.rdQLenPdf::26                      0                       # What read queue length does an incoming req see
system.mem_ctrls.rdQLenPdf::27                      0                       # What read queue length does an incoming req see
system.mem_ctrls.rdQLenPdf::28                      0                       # What read queue length does an incoming req see
system.mem_ctrls.rdQLenPdf::29                      0                       # What read queue length does an incoming req see
system.mem_ctrls.rdQLenPdf::30                      0                       # What read queue length does an incoming req see
system.mem_ctrls.rdQLenPdf::31                      0                       # What read queue length does an incoming req see
system.mem_ctrls.wrQLenPdf::0                       1                       # What write queue length does an incoming req see
system.mem_ctrls.wrQLenPdf::1                       1                       # What write queue length does an incoming req see
system.mem_ctrls.wrQLenPdf::2                       1                       # What write queue length does an incoming req see
system.mem_ctrls.wrQLenPdf::3                       1                       # What write queue length does an incoming req see
system.mem_ctrls.wrQLenPdf::4                       1                       # What write queue length does an incoming req see
system.mem_ctrls.wrQLenPdf::5                       1                       # What write queue length does an incoming req see
system.mem_ctrls.wrQLenPdf::6                       1                       # What write queue length does an incoming req see
system.mem_ctrls.wrQLenPdf::7                       1                       # What write queue length does an incoming req see
system.mem_ctrls.wrQLenPdf::8                       1                       # What write queue length does an incoming req see
system.mem_ctrls.wrQLenPdf::9                       1                       # What write queue length does an incoming req see
system.mem_ctrls.wrQLenPdf::10                      1                       # What write queue length does an incoming req see
system.mem_ctrls.wrQLenPdf::11                      1                       # What write queue length does an incoming req see
system.mem_ctrls.wrQLenPdf::12                      1                       # What write queue length does an incoming req see
system.mem_ctrls.wrQLenPdf::13                      1                       # What write queue length does an incoming req see
system.mem_ctrls.wrQLenPdf::14                      1                       # What write queue length does an incoming req see
system.mem_ctrls.wrQLenPdf::15                     79                       # What write queue length does an incoming req see
system.mem_ctrls.wrQLenPdf::16                     83                       # What write queue length does an incoming req see
system.mem_ctrls.wrQLenPdf::17                    157                       # What write queue length does an incoming req see
system.mem_ctrls.wrQLenPdf::18                    157                       # What write queue length does an incoming req see
system.mem_ctrls.wrQLenPdf::19                    157                       # What write queue length does an incoming req see
system.mem_ctrls.wrQLenPdf::20                    157                       # What write queue length does an incoming req see
system.mem_ctrls.wrQLenPdf::21                    157                       # What write queue length does an incoming req see
system.mem_ctrls.wrQLenPdf::22                    157                       # What write queue length does an incoming req see
system.mem_ctrls.wrQLenPdf::23                    157                       # What write queue length does an incoming req see
system.mem_ctrls.wrQLenPdf::24                    157                       # What write queue length does an incoming req see
system.mem_ctrls.wrQLenPdf::25                    157                       # What write queue length does an incoming req see
system.mem_ctrls.wrQLenPdf::26                    156                       # What write queue length does an incoming req see
system.mem_ctrls.wrQLenPdf::27                    156                       # What write queue length does an incoming req see
system.mem_ctrls.wrQLenPdf::28                    156                       # What write queue length does an incoming req see
system.mem_ctrls.wrQLenPdf::29                    156                       # What write queue length does an incoming req see
system.mem_ctrls.wrQLenPdf::30                    156                       # What write queue length does an incoming req see
system.mem_ctrls.wrQLenPdf::31                    156                       # What write queue length does an incoming req see
system.mem_ctrls.wrQLenPdf::32                    156                       # What write queue length does an incoming req see
system.mem_ctrls.wrQLenPdf::33                      0                       # What write queue length does an incoming req see
system.mem_ctrls.wrQLenPdf::34                      0                       # What write queue length does an incoming req see
system.mem_ctrls.wrQLenPdf::35                      0                       # What write queue length does an incoming req see
system.mem_ctrls.wrQLenPdf::36                      0                       # What write queue length does an incoming req see
system.mem_ctrls.wrQLenPdf::37                      0                       # What write queue length does an incoming req see
system.mem_ctrls.wrQLenPdf::38                      0                       # What write queue length does an incoming req see
system.mem_ctrls.wrQLenPdf::39                      0                       # What write queue length does an incoming req see
system.mem_ctrls.wrQLenPdf::40                      0                       # What write queue length does an incoming req see
system.mem_ctrls.wrQLenPdf::41                      0                       # What write queue length does an incoming req see
system.mem_ctrls.wrQLenPdf::42                      0                       # What write queue length does an incoming req see
system.mem_ctrls.wrQLenPdf::43                      0                       # What write queue length does an incoming req see
system.mem_ctrls.wrQLenPdf::44                      0                       # What write queue length does an incoming req see
system.mem_ctrls.wrQLenPdf::45                      0                       # What write queue length does an incoming req see
system.mem_ctrls.wrQLenPdf::46                      0                       # What write queue length does an incoming req see
system.mem_ctrls.wrQLenPdf::47                      0                       # What write queue length does an incoming req see
system.mem_ctrls.wrQLenPdf::48                      0                       # What write queue length does an incoming req see
system.mem_ctrls.wrQLenPdf::49                      0                       # What write queue length does an incoming req see
system.mem_ctrls.wrQLenPdf::50                      0                       # What write queue length does an incoming req see
system.mem_ctrls.wrQLenPdf::51                      0                       # What write queue length does an incoming req see
system.mem_ctrls.wrQLenPdf::52                      0                       # What write queue length does an incoming req see
system.mem_ctrls.wrQLenPdf::53                      0                       # What write queue length does an incoming req see
system.mem_ctrls.wrQLenPdf::54                      0                       # What write queue length does an incoming req see
system.mem_ctrls.wrQLenPdf::55                      0                       # What write queue length does an incoming req see
system.mem_ctrls.wrQLenPdf::56                      0                       # What write queue length does an incoming req see
system.mem_ctrls.wrQLenPdf::57                      0                       # What write queue length does an incoming req see
system.mem_ctrls.wrQLenPdf::58                      0                       # What write queue length does an incoming req see
system.mem_ctrls.wrQLenPdf::59                      0                       # What write queue length does an incoming req see
system.mem_ctrls.wrQLenPdf::60                      0                       # What write queue length does an incoming req see
system.mem_ctrls.wrQLenPdf::61                      0                       # What write queue length does an incoming req see
system.mem_ctrls.wrQLenPdf::62                      0                       # What write queue length does an incoming req see
system.mem_ctrls.wrQLenPdf::63                      0                       # What write queue length does an incoming req see
system.mem_ctrls.rdPerTurnAround::samples          156                       # Reads before turning the bus around for writes
system.mem_ctrls.rdPerTurnAround::mean     155.314103                       # Reads before turning the bus around for writes
system.mem_ctrls.rdPerTurnAround::gmean    116.277413                       # Reads before turning the bus around for writes
system.mem_ctrls.rdPerTurnAround::stdev    392.853364                       # Reads before turning the bus around for writes
system.mem_ctrls.rdPerTurnAround::0-255           152     97.44%     97.44% # Reads before turning the bus around for writes
system.mem_ctrls.rdPerTurnAround::256-511            3      1.92%     99.36% # Reads before turning the bus around for writes
system.mem_ctrls.rdPerTurnAround::4864-5119            1      0.64%    100.00% # Reads before turning the bus around for writes
system.mem_ctrls.rdPerTurnAround::total           156                       # Reads before turning the bus around for writes
system.mem_ctrls.wrPerTurnAround::samples          156                       # Writes before turning the bus around for reads
system.mem_ctrls.wrPerTurnAround::mean      17.025641                       # Writes before turning the bus around for reads
system.mem_ctrls.wrPerTurnAround::gmean     16.996964                       # Writes before turning the bus around for reads
system.mem_ctrls.wrPerTurnAround::stdev      0.989941                       # Writes before turning the bus around for reads
system.mem_ctrls.wrPerTurnAround::16               74     47.44%     47.44% # Writes before turning the bus around for reads
system.mem_ctrls.wrPerTurnAround::17                4      2.56%     50.00% # Writes before turning the bus around for reads
system.mem_ctrls.wrPerTurnAround::18               78     50.00%    100.00% # Writes before turning the bus around for reads
system.mem_ctrls.wrPerTurnAround::total           156                       # Writes before turning the bus around for reads
system.mem_ctrls.bytesReadWrQ                     832                       # Total number of bytes read from write queue
system.mem_ctrls.bytesReadSys                  780320                       # Total read bytes from the system interface side
system.mem_ctrls.bytesWrittenSys                93056                       # Total written bytes from the system interface side
system.mem_ctrls.avgRdBWSys                      4.16                       # Average system read bandwidth in MiByte/s
system.mem_ctrls.avgWrBWSys                      0.50                       # Average system write bandwidth in MiByte/s
system.mem_ctrls.totGap                   19664745500                       # Total gap between requests
system.mem_ctrls.avgGap                     720505.09                       # Average gap between requests
system.mem_ctrls.requestorReadBytes::.cpu.inst        96128                       # Per-requestor bytes read from memory
system.mem_ctrls.requestorReadBytes::.cpu.data       683776                       # Per-requestor bytes read from memory
system.mem_ctrls.requestorWriteBytes::.writebacks        84992                       # Per-requestor bytes write to memory
system.mem_ctrls.requestorReadRate::.cpu.inst 511990.860520005168                       # Per-requestor bytes read from memory rate (Bytes/sec)
system.mem_ctrls.requestorReadRate::.cpu.data 3641884.390010476112                       # Per-requestor bytes read from memory rate (Bytes/sec)
system.mem_ctrls.requestorWriteRate::.writebacks 452679.003176143044                       # Per-requestor bytes write to memory rate (Bytes/sec)
system.mem_ctrls.requestorReadAccesses::.cpu.inst         3004                       # Per-requestor read serviced memory accesses
system.mem_ctrls.requestorReadAccesses::.cpu.data        21381                       # Per-requestor read serviced memory accesses
system.mem_ctrls.requestorWriteAccesses::.writebacks         2908                       # Per-requestor write serviced memory accesses
system.mem_ctrls.requestorReadTotalLat::.cpu.inst     74029000                       # Per-requestor read total memory access latency
system.mem_ctrls.requestorReadTotalLat::.cpu.data    629522000                       # Per-requestor read total memory access latency
[...]
system.mem_ctrls.dram.bw_total::.cpu.data      3644100                       # Total bandwidth to/from this memory (bytes/s)
system.mem_ctrls.dram.bw_total::total         4651720                       # Total bandwidth to/from this memory (bytes/s)
system.mem_ctrls.dram.readBursts                24372                       # Number of DRAM read bursts
system.mem_ctrls.dram.writeBursts                2656                       # Number of DRAM write bursts
system.mem_ctrls.dram.perBankRdBursts::0         1536                       # Per bank write bursts
system.mem_ctrls.dram.perBankRdBursts::1         1517                       # Per bank write bursts
system.mem_ctrls.dram.perBankRdBursts::2         2021                       # Per bank write bursts
system.mem_ctrls.dram.perBankRdBursts::3         1498                       # Per bank write bursts
system.mem_ctrls.dram.perBankRdBursts::4         1877                       # Per bank write bursts
system.mem_ctrls.dram.perBankRdBursts::5         1791                       # Per bank write bursts
system.mem_ctrls.dram.perBankRdBursts::6         1765                       # Per bank write bursts
system.mem_ctrls.dram.perBankRdBursts::7         1112                       # Per bank write bursts
system.mem_ctrls.dram.perBankRdBursts::8         1219                       # Per bank write bursts
system.mem_ctrls.dram.perBankRdBursts::9         1513                       # Per bank write bursts
system.mem_ctrls.dram.perBankRdBursts::10         1425                       # Per bank write bursts
system.mem_ctrls.dram.perBankRdBursts::11         1645                       # Per bank write bursts
system.mem_ctrls.dram.perBankRdBursts::12         1889                       # Per bank write bursts
system.mem_ctrls.dram.perBankRdBursts::13         1501                       # Per bank write bursts
system.mem_ctrls.dram.perBankRdBursts::14         1059                       # Per bank write bursts
system.mem_ctrls.dram.perBankRdBursts::15         1004                       # Per bank write bursts
system.mem_ctrls.dram.perBankWrBursts::0            1                       # Per bank write bursts
system.mem_ctrls.dram.perBankWrBursts::1          314                       # Per bank write bursts
system.mem_ctrls.dram.perBankWrBursts::2          263                       # Per bank write bursts
system.mem_ctrls.dram.perBankWrBursts::3            1                       # Per bank write bursts
system.mem_ctrls.dram.perBankWrBursts::4          283                       # Per bank write bursts
system.mem_ctrls.dram.perBankWrBursts::5          180                       # Per bank write bursts
system.mem_ctrls.dram.perBankWrBursts::6          207                       # Per bank write bursts
system.mem_ctrls.dram.perBankWrBursts::7          115                       # Per bank write bursts
system.mem_ctrls.dram.perBankWrBursts::8          145                       # Per bank write bursts
system.mem_ctrls.dram.perBankWrBursts::9          434                       # Per bank write bursts
system.mem_ctrls.dram.perBankWrBursts::10          303                       # Per bank write bursts
system.mem_ctrls.dram.perBankWrBursts::11          192                       # Per bank write bursts
system.mem_ctrls.dram.perBankWrBursts::12          175                       # Per bank write bursts
system.mem_ctrls.dram.perBankWrBursts::13           43                       # Per bank write bursts
system.mem_ctrls.dram.perBankWrBursts::14            0                       # Per bank write bursts
system.mem_ctrls.dram.perBankWrBursts::15            0                       # Per bank write bursts
system.mem_ctrls.dram.totQLat               246576000                       # Total ticks spent queuing
system.mem_ctrls.dram.totBusLat             121860000                       # Total ticks spent in databus transfers
system.mem_ctrls.dram.totMemAccLat          703551000                       # Total ticks spent from burst creation until serviced by the DRAM
system.mem_ctrls.dram.avgQLat                10117.18                       # Average queueing delay per DRAM burst
system.mem_ctrls.dram.avgBusLat               5000.00                       # Average bus latency per DRAM burst
system.mem_ctrls.dram.avgMemAccLat           28867.18                       # Average memory access latency per DRAM burst
system.mem_ctrls.dram.readRowHits               15934                       # Number of row buffer hits during reads
system.mem_ctrls.dram.writeRowHits               1925                       # Number of row buffer hits during writes
system.mem_ctrls.dram.readRowHitRate            65.38                       # Row buffer hit rate for reads
system.mem_ctrls.dram.writeRowHitRate           72.48                       # Row buffer hit rate for writes
system.mem_ctrls.dram.bytesPerActivate::samples         9169                       # Bytes accessed per row activation
system.mem_ctrls.dram.bytesPerActivate::mean   188.656560                       # Bytes accessed per row activation
system.mem_ctrls.dram.bytesPerActivate::gmean   121.426804                       # Bytes accessed per row activation
system.mem_ctrls.dram.bytesPerActivate::stdev   233.551508                       # Bytes accessed per row activation
system.mem_ctrls.dram.bytesPerActivate::0-127         4821     52.58%     52.58% # Bytes accessed per row activation
system.mem_ctrls.dram.bytesPerActivate::128-255         2447     26.69%     79.27% # Bytes accessed per row activation
system.mem_ctrls.dram.bytesPerActivate::256-383          678      7.39%     86.66% # Bytes accessed per row activation
system.mem_ctrls.dram.bytesPerActivate::384-511          354      3.86%     90.52% # Bytes accessed per row activation
system.mem_ctrls.dram.bytesPerActivate::512-639          211      2.30%     92.82% # Bytes accessed per row activation
system.mem_ctrls.dram.bytesPerActivate::640-767          127      1.39%     94.21% # Bytes accessed per row activation
system.mem_ctrls.dram.bytesPerActivate::768-895           70      0.76%     94.97% # Bytes accessed per row activation
system.mem_ctrls.dram.bytesPerActivate::896-1023           59      0.64%     95.62% # Bytes accessed per row activation
system.mem_ctrls.dram.bytesPerActivate::1024-1151          402      4.38%    100.00% # Bytes accessed per row activation
system.mem_ctrls.dram.bytesPerActivate::total         9169                       # Bytes accessed per row activation
system.mem_ctrls.dram.bytesRead               1559808                       # Total number of bytes read from DRAM
system.mem_ctrls.dram.bytesWritten             169984                       # Total number of bytes written to DRAM
system.mem_ctrls.dram.avgRdBW                8.307751                       # Average DRAM read bandwidth in MiBytes/s
system.mem_ctrls.dram.avgWrBW                0.905358                       # Average DRAM write bandwidth in MiBytes/s
system.mem_ctrls.dram.peakBW                 12800.00                       # Theoretical peak bandwidth in MiByte/s
system.mem_ctrls.dram.busUtil                    0.07                       # Data bus utilization in percentage
system.mem_ctrls.dram.busUtilRead                0.06                       # Data bus utilization in percentage for reads
system.mem_ctrls.dram.busUtilWrite               0.01                       # Data bus utilization in percentage for writes
system.mem_ctrls.dram.pageHitRate               66.08                       # Row buffer hit rate, read and write combined
system.mem_ctrls.dram.power_state.pwrStateResidencyTicks::UNDEFINED 187753351500                       # Cumulative time (in ticks) in various power states
system.mem_ctrls.dram.rank0.actEnergy        34150620                       # Energy for activate commands per rank (pJ)
system.mem_ctrls.dram.rank0.preEnergy        18151485                       # Energy for precharge commands per rank (pJ)
system.mem_ctrls.dram.rank0.readEnergy       93655380                       # Energy for read commands per rank (pJ)
system.mem_ctrls.dram.rank0.writeEnergy       7120080                       # Energy for write commands per rank (pJ)
system.mem_ctrls.dram.rank0.refreshEnergy 14820814320.000002                       # Energy for refresh commands per rank (pJ)
system.mem_ctrls.dram.rank0.actBackEnergy   4970915280                       # Energy for active background per rank (pJ)
system.mem_ctrls.dram.rank0.preBackEnergy  67911253440                       # Energy for precharge background per rank (pJ)
system.mem_ctrls.dram.rank0.actPowerDownEnergy            0                       # Energy for active power-down per rank (pJ)
system.mem_ctrls.dram.rank0.prePowerDownEnergy            0                       # Energy for precharge power-down per rank (pJ)
system.mem_ctrls.dram.rank0.selfRefreshEnergy            0                       # Energy for self refresh per rank (pJ)
system.mem_ctrls.dram.rank0.totalEnergy   87856060605                       # Total energy per rank (pJ)
system.mem_ctrls.dram.rank0.averagePower   467.933381                       # Core power per rank (mW)
system.mem_ctrls.dram.rank0.totalIdleTime            0                       # Total Idle time Per DRAM Rank
system.mem_ctrls.dram.rank0.pwrStateTime::IDLE 176505849250                       # Time in different power states
system.mem_ctrls.dram.rank0.pwrStateTime::REF   6269380000                       # Time in different power states
system.mem_ctrls.dram.rank0.pwrStateTime::SREF            0                       # Time in different power states
system.mem_ctrls.dram.rank0.pwrStateTime::PRE_PDN            0                       # Time in different power states
system.mem_ctrls.dram.rank0.pwrStateTime::ACT   4978122250                       # Time in different power states
system.mem_ctrls.dram.rank0.pwrStateTime::ACT_PDN            0                       # Time in different power states
system.mem_ctrls.dram.rank1.actEnergy        31316040                       # Energy for activate commands per rank (pJ)
system.mem_ctrls.dram.rank1.preEnergy        16644870                       # Energy for precharge commands per rank (pJ)
system.mem_ctrls.dram.rank1.readEnergy       80360700                       # Energy for read commands per rank (pJ)
system.mem_ctrls.dram.rank1.writeEnergy       6744240                       # Energy for write commands per rank (pJ)
system.mem_ctrls.dram.rank1.refreshEnergy 14820814320.000002                       # Energy for refresh commands per rank (pJ)
system.mem_ctrls.dram.rank1.actBackEnergy   4958595870                       # Energy for active background per rank (pJ)
system.mem_ctrls.dram.rank1.preBackEnergy  67921627680                       # Energy for precharge background per rank (pJ)
system.mem_ctrls.dram.rank1.actPowerDownEnergy            0                       # Energy for active power-down per rank (pJ)
system.mem_ctrls.dram.rank1.prePowerDownEnergy            0                       # Energy for precharge power-down per rank (pJ)
system.mem_ctrls.dram.rank1.selfRefreshEnergy            0                       # Energy for self refresh per rank (pJ)
system.mem_ctrls.dram.rank1.totalEnergy   87836103720                       # Total energy per rank (pJ)
system.mem_ctrls.dram.rank1.averagePower   467.827088                       # Core power per rank (mW)
system.mem_ctrls.dram.rank1.totalIdleTime            0                       # Total Idle time Per DRAM Rank
system.mem_ctrls.dram.rank1.pwrStateTime::IDLE 176535557250                       # Time in different power states
system.mem_ctrls.dram.rank1.pwrStateTime::REF   6269380000                       # Time in different power states
system.mem_ctrls.dram.rank1.pwrStateTime::SREF            0                       # Time in different power states
system.mem_ctrls.dram.rank1.pwrStateTime::PRE_PDN            0                       # Time in different power states
system.mem_ctrls.dram.rank1.pwrStateTime::ACT   4948414250                       # Time in different power states
system.mem_ctrls.dram.rank1.pwrStateTime::ACT_PDN            0                       # Time in different power states
system.mem_ctrls.power_state.pwrStateResidencyTicks::UNDEFINED 187753351500                       # Cumulative time (in ticks) in various power states
system.membus.trans_dist::ReadResp              20182                       # Transaction distribution
system.membus.trans_dist::WritebackDirty         2908                       # Transaction distribution
system.membus.trans_dist::CleanEvict            13975                       # Transaction distribution
system.membus.trans_dist::ReadExReq              4203                       # Transaction distribution
system.membus.trans_dist::ReadExResp             4203                       # Transaction distribution
system.membus.trans_dist::ReadSharedReq         20182                       # Transaction distribution
system.membus.pkt_count_system.l2.mem_side_port::system.mem_ctrls.port        65653                       # Packet count per connected requestor and responder (bytes)
system.membus.pkt_count_system.l2.mem_side_port::total        65653                       # Packet count per connected requestor and responder (bytes)
system.membus.pkt_count::total                  65653                       # Packet count per connected requestor and responder (bytes)
system.membus.pkt_size_system.l2.mem_side_port::system.mem_ctrls.port       873376                       # Cumulative packet size per connected requestor and responder (bytes)
system.membus.pkt_size_system.l2.mem_side_port::total       873376                       # Cumulative packet size per connected requestor and responder (bytes)
system.membus.pkt_size::total                  873376                       # Cumulative packet size per connected requestor and responder (bytes)
system.membus.snoops                                0                       # Total snoops (count)
system.membus.snoopTraffic                          0                       # Total snoop traffic (bytes)
system.membus.snoop_fanout::samples             24385                       # Request fanout histogram
system.membus.snoop_fanout::mean                    0                       # Request fanout histogram
system.membus.snoop_fanout::stdev                   0                       # Request fanout histogram
system.membus.snoop_fanout::underflows              0      0.00%      0.00% # Request fanout histogram
system.membus.snoop_fanout::0                   24385    100.00%    100.00% # Request fanout histogram
system.membus.snoop_fanout::1                       0      0.00%    100.00% # Request fanout histogram
system.membus.snoop_fanout::overflows               0      0.00%    100.00% # Request fanout histogram
system.membus.snoop_fanout::min_value               0                       # Request fanout histogram
system.membus.snoop_fanout::max_value               0                       # Request fanout histogram
system.membus.snoop_fanout::total               24385                       # Request fanout histogram
system.membus.power_state.pwrStateResidencyTicks::UNDEFINED 187753351500                       # Cumulative time (in ticks) in various power states
system.membus.reqLayer2.occupancy            47106500                       # Layer occupancy (ticks)
system.membus.reqLayer2.utilization               0.0                       # Layer utilization (%)
system.membus.respLayer1.occupancy           81953000                       # Layer occupancy (ticks)
system.membus.respLayer1.utilization              0.0                       # Layer utilization (%)
system.tol2bus.trans_dist::ReadResp             21377                       # Transaction distribution
system.tol2bus.trans_dist::WritebackDirty         7073                       # Transaction distribution
system.tol2bus.trans_dist::WritebackClean          501                       # Transaction distribution
system.tol2bus.trans_dist::CleanEvict           35285                       # Transaction distribution
system.tol2bus.trans_dist::ReadExReq             4818                       # Transaction distribution
system.tol2bus.trans_dist::ReadExResp            4818                       # Transaction distribution
system.tol2bus.trans_dist::ReadCleanReq          3013                       # Transaction distribution
system.tol2bus.trans_dist::ReadSharedReq        18364                       # Transaction distribution
system.tol2bus.pkt_count_system.cpu.icache.mem_side_port::system.l2.cpu_side_port         6527                       # Packet count per connected requestor and responder (bytes)
system.tol2bus.pkt_count_system.cpu.dcache.mem_side_port::system.l2.cpu_side_port        65450                       # Packet count per connected requestor and responder (bytes)
system.tol2bus.pkt_count::total                 71977                       # Packet count per connected requestor and responder (bytes)
system.tol2bus.pkt_size_system.cpu.icache.mem_side_port::system.l2.cpu_side_port       112448                       # Cumulative packet size per connected requestor and responder (bytes)
system.tol2bus.pkt_size_system.cpu.dcache.mem_side_port::system.l2.cpu_side_port       875104                       # Cumulative packet size per connected requestor and responder (bytes)
system.tol2bus.pkt_size::total                 987552                       # Cumulative packet size per connected requestor and responder (bytes)
system.tol2bus.snoops                           23272                       # Total snoops (count)
system.tol2bus.snoopTraffic                     93056                       # Total snoop traffic (bytes)
system.tol2bus.snoop_fanout::samples            49467                       # Request fanout histogram
system.tol2bus.snoop_fanout::mean            0.332727                       # Request fanout histogram
system.tol2bus.snoop_fanout::stdev           0.471194                       # Request fanout histogram
system.tol2bus.snoop_fanout::underflows             0      0.00%      0.00% # Request fanout histogram
system.tol2bus.snoop_fanout::0                  33008     66.73%     66.73% # Request fanout histogram
system.tol2bus.snoop_fanout::1                  16459     33.27%    100.00% # Request fanout histogram
system.tol2bus.snoop_fanout::2                      0      0.00%    100.00% # Request fanout histogram
system.tol2bus.snoop_fanout::3                      0      0.00%    100.00% # Request fanout histogram
system.tol2bus.snoop_fanout::4                      0      0.00%    100.00% # Request fanout histogram
system.tol2bus.snoop_fanout::overflows              0      0.00%    100.00% # Request fanout histogram
system.tol2bus.snoop_fanout::min_value              0                       # Request fanout histogram
system.tol2bus.snoop_fanout::max_value              1                       # Request fanout histogram
system.tol2bus.snoop_fanout::total              49467                       # Request fanout histogram
system.tol2bus.power_state.pwrStateResidencyTicks::UNDEFINED 187753351500                       # Cumulative time (in ticks) in various power states
system.tol2bus.reqLayer0.occupancy           25224000                       # Layer occupancy (ticks)
system.tol2bus.reqLayer0.utilization              0.0                       # Layer utilization (%)
system.tol2bus.respLayer0.occupancy           3013000                       # Layer occupancy (ticks)
system.tol2bus.respLayer0.utilization             0.0                       # Layer utilization (%)
system.tol2bus.respLayer1.occupancy          23182000                       # Layer occupancy (ticks)
system.tol2bus.respLayer1.utilization             0.0                       # Layer utilization (%)
system.voltage_domain.voltage                       1                       # Voltage in Volts

---------- End Simulation Statistics   ----------
