
---------- Begin Simulation Statistics ----------
final_tick                               137424114500                       # Number of ticks from beginning of simulation (restored from checkpoints and never reset)
host_inst_rate                                 486511                       # Simulator instruction rate (inst/s)
host_mem_usage                                 712664                       # Number of bytes of host memory used
host_op_rate                                   744236                       # Simulator op (including micro ops) rate (op/s)
host_seconds                                   130.39                       # Real time elapsed on the host
host_tick_rate                             1053932430                       # Simulator tick rate (ticks/s)
sim_freq                                 1000000000000                       # Frequency of simulated ticks
sim_insts                                    63436878                       # Number of instructions simulated
sim_ops                                      97042210                       # Number of ops (including micro ops) simulated
sim_seconds                                  0.137424                       # Number of seconds simulated
sim_ticks                                137424114500                       # Number of ticks simulated
system.cpu.Branches                           7714393                       # Number of branches fetched
system.cpu.committedInsts                    63436878                       # Number of instructions committed
system.cpu.committedOps                      97042210                       # Number of ops (including micro ops) committed
system.cpu.idle_fraction                     0.000000                       # Percentage of idle cycles
system.cpu.not_idle_fraction                 1.000000                       # Percentage of non-idle cycles
system.cpu.numCycles                        274848229                       # number of cpu cycles simulated
system.cpu.numWorkItemsCompleted                    0                       # number of work items this cpu completed
system.cpu.numWorkItemsStarted                      0                       # number of work items this cpu started
system.cpu.num_busy_cycles               274848228.998000                       # Number of busy cycles
system.cpu.num_cc_register_reads             29902185                       # number of times the CC registers were read
system.cpu.num_cc_register_writes            27168373                       # number of times the CC registers were written
system.cpu.num_conditional_control_insts      4234783                       # number of instructions that are conditional controls
system.cpu.num_fp_alu_accesses                  85206                       # Number of float alu accesses
system.cpu.num_fp_insts                         85206                       # number of float instructions
system.cpu.num_fp_register_reads               119500                       # number of times the floating registers were read
system.cpu.num_fp_register_writes               63458                       # number of times the floating registers were written
system.cpu.num_func_calls                     1924148                       # number of times a function call or return occured
system.cpu.num_idle_cycles                   0.002000                       # Number of idle cycles
system.cpu.num_int_alu_accesses              95088667                       # Number of integer alu accesses
system.cpu.num_int_insts                     95088667                       # number of integer instructions
system.cpu.num_int_register_reads           214307208                       # number of times the integer registers were read
system.cpu.num_int_register_writes           77409627                       # number of times the integer registers were written
system.cpu.num_load_insts                    26073751                       # Number of load instructions
system.cpu.num_mem_refs                      36099173                       # number of memory refs
system.cpu.num_store_insts                   10025422                       # Number of store instructions
system.cpu.num_vec_alu_accesses                     0                       # Number of vector alu accesses
system.cpu.num_vec_insts                            0                       # number of vector instructions
system.cpu.num_vec_register_reads                   0                       # number of times the vector registers were read
system.cpu.num_vec_register_writes                  0                       # number of times the vector registers were written
system.cpu.op_class::No_OpClass                976243      1.01%      1.01% # Class of executed instruction
system.cpu.op_class::IntAlu                  59879192     61.70%     62.71% # Class of executed instruction
system.cpu.op_class::IntMult                       74      0.00%     62.71% # Class of executed instruction
system.cpu.op_class::IntDiv                     36240      0.04%     62.75% # Class of executed instruction
system.cpu.op_class::FloatAdd                    5590      0.01%     62.75% # Class of executed instruction
system.cpu.op_class::FloatCmp                       0      0.00%     62.75% # Class of executed instruction
system.cpu.op_class::FloatCvt                    1232      0.00%     62.75% # Class of executed instruction
system.cpu.op_class::FloatMult                      0      0.00%     62.75% # Class of executed instruction
system.cpu.op_class::FloatMultAcc                   0      0.00%     62.75% # Class of executed instruction
system.cpu.op_class::FloatDiv                       0      0.00%     62.75% # Class of executed instruction
system.cpu.op_class::FloatMisc                      0      0.00%     62.75% # Class of executed instruction
system.cpu.op_class::FloatSqrt                      0      0.00%     62.75% # Class of executed instruction
system.cpu.op_class::SimdAdd                     6716      0.01%     62.76% # Class of executed instruction
system.cpu.op_class::SimdAddAcc                     0      0.00%     62.76% # Class of executed instruction
system.cpu.op_class::SimdAlu                    12162      0.01%     62.77% # Class of executed instruction
system.cpu.op_class::SimdCmp                        6      0.00%     62.77% # Class of executed instruction
system.cpu.op_class::SimdCvt                    13804      0.01%     62.79% # Class of executed instruction
system.cpu.op_class::SimdMisc                   12230      0.01%     62.80% # Class of executed instruction
system.cpu.op_class::SimdMult                       0      0.00%     62.80% # Class of executed instruction
system.cpu.op_class::SimdMultAcc                    0      0.00%     62.80% # Class of executed instruction
system.cpu.op_class::SimdShift                    436      0.00%     62.80% # Class of executed instruction
system.cpu.op_class::SimdShiftAcc                   0      0.00%     62.80% # Class of executed instruction
system.cpu.op_class::SimdDiv                        0      0.00%     62.80% # Class of executed instruction
system.cpu.op_class::SimdSqrt                       0      0.00%     62.80% # Class of executed instruction
system.cpu.op_class::SimdFloatAdd                  10      0.00%     62.80% # Class of executed instruction
system.cpu.op_class::SimdFloatAlu                   0      0.00%     62.80% # Class of executed instruction
system.cpu.op_class::SimdFloatCmp                   0      0.00%     62.80% # Class of executed instruction
system.cpu.op_class::SimdFloatCvt                  30      0.00%     62.80% # Class of executed instruction
system.cpu.op_class::SimdFloatDiv                   0      0.00%     62.80% # Class of executed instruction
system.cpu.op_class::SimdFloatMisc                  0      0.00%     62.80% # Class of executed instruction
system.cpu.op_class::SimdFloatMult                 12      0.00%     62.80% # Class of executed instruction
system.cpu.op_class::SimdFloatMultAcc               0      0.00%     62.80% # Class of executed instruction
system.cpu.op_class::SimdFloatSqrt                  0      0.00%     62.80% # Class of executed instruction
system.cpu.op_class::SimdReduceAdd                  0      0.00%     62.80% # Class of executed instruction
system.cpu.op_class::SimdReduceAlu                  0      0.00%     62.80% # Class of executed instruction
system.cpu.op_class::SimdReduceCmp                  0      0.00%     62.80% # Class of executed instruction
system.cpu.op_class::SimdFloatReduceAdd             0      0.00%     62.80% # Class of executed instruction
system.cpu.op_class::SimdFloatReduceCmp             0      0.00%     62.80% # Class of executed instruction
system.cpu.op_class::SimdAes                        0      0.00%     62.80% # Class of executed instruction
system.cpu.op_class::SimdAesMix                     0      0.00%     62.80% # Class of executed instruction
system.cpu.op_class::SimdSha1Hash                   0      0.00%     62.80% # Class of executed instruction
system.cpu.op_class::SimdSha1Hash2                  0      0.00%     62.80% # Class of executed instruction
system.cpu.op_class::SimdSha256Hash                 0      0.00%     62.80% # Class of executed instruction
system.cpu.op_class::SimdSha256Hash2                0      0.00%     62.80% # Class of executed instruction
system.cpu.op_class::SimdShaSigma2                  0      0.00%     62.80% # Class of executed instruction
system.cpu.op_class::SimdShaSigma3                  0      0.00%     62.80% # Class of executed instruction
system.cpu.op_class::SimdPredAlu                    0      0.00%     62.80% # Class of executed instruction
system.cpu.op_class::MemRead                 26056914     26.85%     89.65% # Class of executed instruction
system.cpu.op_class::MemWrite                10011984     10.32%     99.97% # Class of executed instruction
system.cpu.op_class::FloatMemRead               16837      0.02%     99.99% # Class of executed instruction
system.cpu.op_class::FloatMemWrite              13438      0.01%    100.00% # Class of executed instruction
system.cpu.op_class::IprAccess                      0      0.00%    100.00% # Class of executed instruction
system.cpu.op_class::InstPrefetch                   0      0.00%    100.00% # Class of executed instruction
system.cpu.op_class::total                   97043150                       # Class of executed instruction
system.cpu.workload.numSyscalls                   100                       # Number of system calls
system.membus.snoop_filter.hit_multi_requests            0                       # Number of requests hitting in the snoop filter with multiple (>1) holders of the requested data.
system.membus.snoop_filter.hit_multi_snoops            0                       # Number of snoops hitting in the snoop filter with multiple (>1) holders of the requested data.
system.membus.snoop_filter.hit_single_requests       179438                       # Number of requests hitting in the snoop filter with a single holder of the requested data.
system.membus.snoop_filter.hit_single_snoops            0                       # Number of snoops hitting in the snoop filter with a single holder of the requested data.
system.membus.snoop_filter.tot_requests        368410                       # Total number of requests made to the snoop filter.
system.membus.snoop_filter.tot_snoops               0                       # Total number of snoops made to the snoop filter.
system.tol2bus.snoop_filter.hit_multi_requests            0                       # Number of requests hitting in the snoop filter with multiple (>1) holders of the requested data.
system.tol2bus.snoop_filter.hit_multi_snoops            0                       # Number of snoops hitting in the snoop filter with multiple (>1) holders of the requested data.
system.tol2bus.snoop_filter.hit_single_requests       187068                       # Number of requests hitting in the snoop filter with a single holder of the requested data.
system.tol2bus.snoop_filter.hit_single_snoops       175567                       # Number of snoops hitting in the snoop filter with a single holder of the requested data.
system.tol2bus.snoop_filter.tot_requests       381337                       # Total number of requests made to the snoop filter.
system.tol2bus.snoop_filter.tot_snoops         175567                       # Total number of snoops made to the snoop filter.
system.clk_domain.clock                          1000                       # Clock period in ticks
system.cpu.dcache.demand_hits::.cpu.data     35941179                       # number of demand (read+write) hits
system.cpu.dcache.demand_hits::total         35941179                       # number of demand (read+write) hits
system.cpu.dcache.overall_hits::.cpu.data     35941179                       # number of overall hits
system.cpu.dcache.overall_hits::total        35941179                       # number of overall hits
system.cpu.dcache.demand_misses::.cpu.data       190295                       # number of demand (read+write) misses
system.cpu.dcache.demand_misses::total         190295                       # number of demand (read+write) misses
system.cpu.dcache.overall_misses::.cpu.data       190295                       # number of overall misses
system.cpu.dcache.overall_misses::total        190295                       # number of overall misses
system.cpu.dcache.demand_miss_latency::.cpu.data  15619707000                       # number of demand (read+write) miss cycles
system.cpu.dcache.demand_miss_latency::total  15619707000                       # number of demand (read+write) miss cycles
system.cpu.dcache.overall_miss_latency::.cpu.data  15619707000                       # number of overall miss cycles
system.cpu.dcache.overall_miss_latency::total  15619707000                       # number of overall miss cycles
system.cpu.dcache.demand_accesses::.cpu.data     36131474                       # number of demand (read+write) accesses
system.cpu.dcache.demand_accesses::total     36131474                       # number of demand (read+write) accesses
system.cpu.dcache.overall_accesses::.cpu.data     36131474                       # number of overall (read+write) accesses
system.cpu.dcache.overall_accesses::total     36131474                       # number of overall (read+write) accesses
system.cpu.dcache.demand_miss_rate::.cpu.data     0.005267                       # miss rate for demand accesses
system.cpu.dcache.demand_miss_rate::total     0.005267                       # miss rate for demand accesses
system.cpu.dcache.overall_miss_rate::.cpu.data     0.005267                       # miss rate for overall accesses
system.cpu.dcache.overall_miss_rate::total     0.005267                       # miss rate for overall accesses
system.cpu.dcache.demand_avg_miss_latency::.cpu.data 82081.541817                       # average overall miss latency
system.cpu.dcache.demand_avg_miss_latency::total 82081.541817                       # average overall miss latency
system.cpu.dcache.overall_avg_miss_latency::.cpu.data 82081.541817                       # average overall miss latency
system.cpu.dcache.overall_avg_miss_latency::total 82081.541817                       # average overall miss latency
system.cpu.dcache.blocked_cycles::no_mshrs            0                       # number of cycles access was blocked
system.cpu.dcache.blocked_cycles::no_targets            0                       # number of cycles access was blocked
system.cpu.dcache.blocked::no_mshrs                 0                       # number of cycles access was blocked
system.cpu.dcache.blocked::no_targets               0                       # number of cycles access was blocked
system.cpu.dcache.avg_blocked_cycles::no_mshrs          nan                       # average number of cycles each access was blocked
system.cpu.dcache.avg_blocked_cycles::no_targets          nan                       # average number of cycles each access was blocked
system.cpu.dcache.writebacks::.writebacks       153368                       # number of writebacks
system.cpu.dcache.writebacks::total            153368                       # number of writebacks
system.cpu.dcache.demand_mshr_misses::.cpu.data       190295                       # number of demand (read+write) MSHR misses
system.cpu.dcache.demand_mshr_misses::total       190295                       # number of demand (read+write) MSHR misses
system.cpu.dcache.overall_mshr_misses::.cpu.data       190295                       # number of overall MSHR misses
system.cpu.dcache.overall_mshr_misses::total       190295                       # number of overall MSHR misses
system.cpu.dcache.demand_mshr_miss_latency::.cpu.data  15429412000                       # number of demand (read+write) MSHR miss cycles
system.cpu.dcache.demand_mshr_miss_latency::total  15429412000                       # number of demand (read+write) MSHR miss cycles
system.cpu.dcache.overall_mshr_miss_latency::.cpu.data  15429412000                       # number of overall MSHR miss cycles
system.cpu.dcache.overall_mshr_miss_latency::total  15429412000                       # number of overall MSHR miss cycles
system.cpu.dcache.demand_mshr_miss_rate::.cpu.data     0.005267                       # mshr miss rate for demand accesses
system.cpu.dcache.demand_mshr_miss_rate::total     0.005267                       # mshr miss rate for demand accesses
system.cpu.dcache.overall_mshr_miss_rate::.cpu.data     0.005267                       # mshr miss rate for overall accesses
system.cpu.dcache.overall_mshr_miss_rate::total     0.005267                       # mshr miss rate for overall accesses
system.cpu.dcache.demand_avg_mshr_miss_latency::.cpu.data 81081.541817                       # average overall mshr miss latency
system.cpu.dcache.demand_avg_mshr_miss_latency::total 81081.541817                       # average overall mshr miss latency
system.cpu.dcache.overall_avg_mshr_miss_latency::.cpu.data 81081.541817                       # average overall mshr miss latency
system.cpu.dcache.overall_avg_mshr_miss_latency::total 81081.541817                       # average overall mshr miss latency
system.cpu.dcache.replacements                 186199                       # number of replacements
system.cpu.dcache.ReadReq_hits::.cpu.data     25994496                       # number of ReadReq hits
system.cpu.dcache.ReadReq_hits::total        25994496                       # number of ReadReq hits
system.cpu.dcache.ReadReq_misses::.cpu.data        79375                       # number of ReadReq misses
system.cpu.dcache.ReadReq_misses::total         79375                       # number of ReadReq misses
system.cpu.dcache.ReadReq_miss_latency::.cpu.data   6935191500                       # number of ReadReq miss cycles
system.cpu.dcache.ReadReq_miss_latency::total   6935191500                       # number of ReadReq miss cycles
system.cpu.dcache.ReadReq_accesses::.cpu.data     26073871                       # number of ReadReq accesses(hits+misses)
system.cpu.dcache.ReadReq_accesses::total     26073871                       # number of ReadReq accesses(hits+misses)
system.cpu.dcache.ReadReq_miss_rate::.cpu.data     0.003044                       # miss rate for ReadReq accesses
system.cpu.dcache.ReadReq_miss_rate::total     0.003044                       # miss rate for ReadReq accesses
system.cpu.dcache.ReadReq_avg_miss_latency::.cpu.data 87372.491339                       # average ReadReq miss latency
system.cpu.dcache.ReadReq_avg_miss_latency::total 87372.491339                       # average ReadReq miss latency
system.cpu.dcache.ReadReq_mshr_misses::.cpu.data        79375                       # number of ReadReq MSHR misses
system.cpu.dcache.ReadReq_mshr_misses::total        79375                       # number of ReadReq MSHR misses
system.cpu.dcache.ReadReq_mshr_miss_latency::.cpu.data   6855816500                       # number of ReadReq MSHR miss cycles
system.cpu.dcache.ReadReq_mshr_miss_latency::total   6855816500                       # number of ReadReq MSHR miss cycles
system.cpu.dcache.ReadReq_mshr_miss_rate::.cpu.data     0.003044                       # mshr miss rate for ReadReq accesses
system.cpu.dcache.ReadReq_mshr_miss_rate::total     0.003044                       # mshr miss rate for ReadReq accesses
system.cpu.dcache.ReadReq_avg_mshr_miss_latency::.cpu.data 86372.491339                       # average ReadReq mshr miss latency
system.cpu.dcache.ReadReq_avg_mshr_miss_latency::total 86372.491339                       # average ReadReq mshr miss latency
system.cpu.dcache.WriteReq_hits::.cpu.data      9946683                       # number of WriteReq hits
system.cpu.dcache.WriteReq_hits::total        9946683                       # number of WriteReq hits
system.cpu.dcache.WriteReq_misses::.cpu.data       110920                       # number of WriteReq misses
system.cpu.dcache.WriteReq_misses::total       110920                       # number of WriteReq misses
system.cpu.dcache.WriteReq_miss_latency::.cpu.data   8684515500                       # number of WriteReq miss cycles
system.cpu.dcache.WriteReq_miss_latency::total   8684515500                       # number of WriteReq miss cycles
system.cpu.dcache.WriteReq_accesses::.cpu.data     10057603                       # number of WriteReq accesses(hits+misses)
system.cpu.dcache.WriteReq_accesses::total     10057603                       # number of WriteReq accesses(hits+misses)
system.cpu.dcache.WriteReq_miss_rate::.cpu.data     0.011028                       # miss rate for WriteReq accesses
system.cpu.dcache.WriteReq_miss_rate::total     0.011028                       # miss rate for WriteReq accesses
system.cpu.dcache.WriteReq_avg_miss_latency::.cpu.data 78295.307429                       # average WriteReq miss latency
system.cpu.dcache.WriteReq_avg_miss_latency::total 78295.307429                       # average WriteReq miss latency
system.cpu.dcache.WriteReq_mshr_misses::.cpu.data       110920                       # number of WriteReq MSHR misses
system.cpu.dcache.WriteReq_mshr_misses::total       110920                       # number of WriteReq MSHR misses
system.cpu.dcache.WriteReq_mshr_miss_latency::.cpu.data   8573595500                       # number of WriteReq MSHR miss cycles
system.cpu.dcache.WriteReq_mshr_miss_latency::total   8573595500                       # number of WriteReq MSHR miss cycles
system.cpu.dcache.WriteReq_mshr_miss_rate::.cpu.data     0.011028                       # mshr miss rate for WriteReq accesses
system.cpu.dcache.WriteReq_mshr_miss_rate::total     0.011028                       # mshr miss rate for WriteReq accesses
system.cpu.dcache.WriteReq_avg_mshr_miss_latency::.cpu.data 77295.307429                       # average WriteReq mshr miss latency
system.cpu.dcache.WriteReq_avg_mshr_miss_latency::total 77295.307429                       # average WriteReq mshr miss latency
system.cpu.dcache.power_state.pwrStateResidencyTicks::UNDEFINED 137424114500                       # Cumulative time (in ticks) in various power states
system.cpu.dcache.tags.tagsinuse          4085.832236                       # Cycle average of tags in use
system.cpu.dcache.tags.total_refs            36131474                       # Total number of references to valid blocks.
system.cpu.dcache.tags.sampled_refs            190295                       # Sample count of references to valid blocks.
system.cpu.dcache.tags.avg_refs            189.870853                       # Average number of references to valid blocks.
system.cpu.dcache.tags.warmup_cycle            174500                       # Cycle when the warmup percentage was hit.
system.cpu.dcache.tags.occ_blocks::.cpu.data  4085.832236                       # Average occupied blocks per requestor
system.cpu.dcache.tags.occ_percent::.cpu.data     0.997518                       # Average percentage of cache occupancy
system.cpu.dcache.tags.occ_percent::total     0.997518                       # Average percentage of cache occupancy
system.cpu.dcache.tags.occ_task_id_blocks::1024         4096                       # Occupied blocks per task id
system.cpu.dcache.tags.age_task_id_blocks_1024::0           35                       # Occupied blocks per task id
system.cpu.dcache.tags.age_task_id_blocks_1024::1          412                       # Occupied blocks per task id
system.cpu.dcache.tags.age_task_id_blocks_1024::2         3646                       # Occupied blocks per task id
system.cpu.dcache.tags.age_task_id_blocks_1024::3            3                       # Occupied blocks per task id
system.cpu.dcache.tags.occ_task_id_percent::1024            1                       # Percentage of cache occupancy per task id
system.cpu.dcache.tags.tag_accesses        1156397463                       # Number of tag accesses
system.cpu.dcache.tags.data_accesses       1156397463                       # Number of data accesses
system.cpu.dcache.tags.power_state.pwrStateResidencyTicks::UNDEFINED 137424114500                       # Cumulative time (in ticks) in various power states
system.cpu.dtb.rdAccesses                    26074093                       # TLB accesses on read requests
system.cpu.dtb.wrAccesses                    10058351                       # TLB accesses on write requests
system.cpu.dtb.rdMisses                          1987                       # TLB misses on read requests
system.cpu.dtb.wrMisses                          1560                       # TLB misses on write requests
system.cpu.dtb.walker.power_state.pwrStateResidencyTicks::UNDEFINED 137424114500                       # Cumulative time (in ticks) in various power states
system.cpu.dtb_walker_cache.blocked_cycles::no_mshrs            0                       # number of cycles access was blocked
system.cpu.dtb_walker_cache.blocked_cycles::no_targets            0                       # number of cycles access was blocked
system.cpu.dtb_walker_cache.blocked::no_mshrs            0                       # number of cycles access was blocked
system.cpu.dtb_walker_cache.blocked::no_targets            0                       # number of cycles access was blocked
system.cpu.dtb_walker_cache.avg_blocked_cycles::no_mshrs          nan                       # average number of cycles each access was blocked
system.cpu.dtb_walker_cache.avg_blocked_cycles::no_targets          nan                       # average number of cycles each access was blocked
system.cpu.dtb_walker_cache.replacements            0                       # number of replacements
system.cpu.dtb_walker_cache.power_state.pwrStateResidencyTicks::UNDEFINED 137424114500                       # Cumulative time (in ticks) in various power states
system.cpu.dtb_walker_cache.tags.tagsinuse            0                       # Cycle average of tags in use
system.cpu.dtb_walker_cache.tags.total_refs            0                       # Total number of references to valid blocks.
system.cpu.dtb_walker_cache.tags.sampled_refs            0                       # Sample count of references to valid blocks.
system.cpu.dtb_walker_cache.tags.avg_refs          nan                       # Average number of references to valid blocks.
system.cpu.dtb_walker_cache.tags.warmup_cycle            0                       # Cycle when the warmup percentage was hit.
system.cpu.dtb_walker_cache.tags.tag_accesses            0                       # Number of tag accesses
system.cpu.dtb_walker_cache.tags.data_accesses            0                       # Number of data accesses
system.cpu.dtb_walker_cache.tags.power_state.pwrStateResidencyTicks::UNDEFINED 137424114500                       # Cumulative time (in ticks) in various power states
system.cpu.icache.demand_hits::.cpu.inst     85584520                       # number of demand (read+write) hits
system.cpu.icache.demand_hits::total         85584520                       # number of demand (read+write) hits
system.cpu.icache.overall_hits::.cpu.inst     85584520                       # number of overall hits
system.cpu.icache.overall_hits::total        85584520                       # number of overall hits
system.cpu.icache.demand_misses::.cpu.inst         3974                       # number of demand (read+write) misses
system.cpu.icache.demand_misses::total           3974                       # number of demand (read+write) misses
system.cpu.icache.overall_misses::.cpu.inst         3974                       # number of overall misses
system.cpu.icache.overall_misses::total          3974                       # number of overall misses
system.cpu.icache.demand_miss_latency::.cpu.inst    313629000                       # number of demand (read+write) miss cycles
system.cpu.icache.demand_miss_latency::total    313629000                       # number of demand (read+write) miss cycles
system.cpu.icache.overall_miss_latency::.cpu.inst    313629000                       # number of overall miss cycles
system.cpu.icache.overall_miss_latency::total    313629000                       # number of overall miss cycles
system.cpu.icache.demand_accesses::.cpu.inst     85588494                       # number of demand (read+write) accesses
system.cpu.icache.demand_accesses::total     85588494                       # number of demand (read+write) accesses
system.cpu.icache.overall_accesses::.cpu.inst     85588494                       # number of overall (read+write) accesses
system.cpu.icache.overall_accesses::total     85588494                       # number of overall (read+write) accesses
system.cpu.icache.demand_miss_rate::.cpu.inst     0.000046                       # miss rate for demand accesses
system.cpu.icache.demand_miss_rate::total     0.000046                       # miss rate for demand accesses
system.cpu.icache.overall_miss_rate::.cpu.inst     0.000046                       # miss rate for overall accesses
system.cpu.icache.overall_miss_rate::total     0.000046                       # miss rate for overall accesses
system.cpu.icache.demand_avg_miss_latency::.cpu.inst 78920.231505                       # average overall miss latency
system.cpu.icache.demand_avg_miss_latency::total 78920.231505                       # average overall miss latency
system.cpu.icache.overall_avg_miss_latency::.cpu.inst 78920.231505                       # average overall miss latency
system.cpu.icache.overall_avg_miss_latency::total 78920.231505                       # average overall miss latency
system.cpu.icache.blocked_cycles::no_mshrs            0                       # number of cycles access was blocked
system.cpu.icache.blocked_cycles::no_targets            0                       # number of cycles access was blocked
system.cpu.icache.blocked::no_mshrs                 0                       # number of cycles access was blocked
system.cpu.icache.blocked::no_targets               0                       # number of cycles access was blocked
system.cpu.icache.avg_blocked_cycles::no_mshrs          nan                       # average number of cycles each access was blocked
system.cpu.icache.avg_blocked_cycles::no_targets          nan                       # average number of cycles each access was blocked
system.cpu.icache.writebacks::.writebacks          869                       # number of writebacks
system.cpu.icache.writebacks::total               869                       # number of writebacks
system.cpu.icache.demand_mshr_misses::.cpu.inst         3974                       # number of demand (read+write) MSHR misses
system.cpu.icache.demand_mshr_misses::total         3974                       # number of demand (read+write) MSHR misses
system.cpu.icache.overall_mshr_misses::.cpu.inst         3974                       # number of overall MSHR misses
system.cpu.icache.overall_mshr_misses::total         3974                       # number of overall MSHR misses
system.cpu.icache.demand_mshr_miss_latency::.cpu.inst    309655000                       # number of demand (read+write) MSHR miss cycles
system.cpu.icache.demand_mshr_miss_latency::total    309655000                       # number of demand (read+write) MSHR miss cycles
system.cpu.icache.overall_mshr_miss_latency::.cpu.inst    309655000                       # number of overall MSHR miss cycles
system.cpu.icache.overall_mshr_miss_latency::total    309655000                       # number of overall MSHR miss cycles
system.cpu.icache.demand_mshr_miss_rate::.cpu.inst     0.000046                       # mshr miss rate for demand accesses
system.cpu.icache.demand_mshr_miss_rate::total     0.000046                       # mshr miss rate for demand accesses
system.cpu.icache.overall_mshr_miss_rate::.cpu.inst     0.000046                       # mshr miss rate for overall accesses
system.cpu.icache.overall_mshr_miss_rate::total     0.000046                       # mshr miss rate for overall accesses
system.cpu.icache.demand_avg_mshr_miss_latency::.cpu.inst 77920.231505                       # average overall mshr miss latency
system.cpu.icache.demand_avg_mshr_miss_latency::total 77920.231505                       # average overall mshr miss latency
system.cpu.icache.overall_avg_mshr_miss_latency::.cpu.inst 77920.231505                       # average overall mshr miss latency
system.cpu.icache.overall_avg_mshr_miss_latency::total 77920.231505                       # average overall mshr miss latency
system.cpu.icache.replacements                    869                       # number of replacements
system.cpu.icache.ReadReq_hits::.cpu.inst     85584520                       # number of ReadReq hits
system.cpu.icache.ReadReq_hits::total        85584520                       # number of ReadReq hits
system.cpu.icache.ReadReq_misses::.cpu.inst         3974                       # number of ReadReq misses
system.cpu.icache.ReadReq_misses::total          3974                       # number of ReadReq misses
system.cpu.icache.ReadReq_miss_latency::.cpu.inst    313629000                       # number of ReadReq miss cycles
system.cpu.icache.ReadReq_miss_latency::total    313629000                       # number of ReadReq miss cycles
system.cpu.icache.ReadReq_accesses::.cpu.inst     85588494                       # number of ReadReq accesses(hits+misses)
system.cpu.icache.ReadReq_accesses::total     85588494                       # number of ReadReq accesses(hits+misses)
system.cpu.icache.ReadReq_miss_rate::.cpu.inst     0.000046                       # miss rate for ReadReq accesses
system.cpu.icache.ReadReq_miss_rate::total     0.000046                       # miss rate for ReadReq accesses
system.cpu.icache.ReadReq_avg_miss_latency::.cpu.inst 78920.231505                       # average ReadReq miss latency
system.cpu.icache.ReadReq_avg_miss_latency::total 78920.231505                       # average ReadReq miss latency
system.cpu.icache.ReadReq_mshr_misses::.cpu.inst         3974                       # number of ReadReq MSHR misses
system.cpu.icache.ReadReq_mshr_misses::total         3974                       # number of ReadReq MSHR misses
system.cpu.icache.ReadReq_mshr_miss_latency::.cpu.inst    309655000                       # number of ReadReq MSHR miss cycles
system.cpu.icache.ReadReq_mshr_miss_latency::total    309655000                       # number of ReadReq MSHR miss cycles
system.cpu.icache.ReadReq_mshr_miss_rate::.cpu.inst     0.000046                       # mshr miss rate for ReadReq accesses
system.cpu.icache.ReadReq_mshr_miss_rate::total     0.000046                       # mshr miss rate for ReadReq accesses
system.cpu.icache.ReadReq_avg_mshr_miss_latency::.cpu.inst 77920.231505                       # average ReadReq mshr miss latency
system.cpu.icache.ReadReq_avg_mshr_miss_latency::total 77920.231505                       # average ReadReq mshr miss latency
system.cpu.icache.power_state.pwrStateResidencyTicks::UNDEFINED 137424114500                       # Cumulative time (in ticks) in various power states
system.cpu.icache.tags.tagsinuse          2681.908470                       # Cycle average of tags in use
system.cpu.icache.tags.total_refs            85588494                       # Total number of references to valid blocks.
system.cpu.icache.tags.sampled_refs              3974                       # Sample count of references to valid blocks.
system.cpu.icache.tags.avg_refs          21537.114746                       # Average number of references to valid blocks.
system.cpu.icache.tags.warmup_cycle             87500                       # Cycle when the warmup percentage was hit.
system.cpu.icache.tags.occ_blocks::.cpu.inst  2681.908470                       # Average occupied blocks per requestor
system.cpu.icache.tags.occ_percent::.cpu.inst     0.654763                       # Average percentage of cache occupancy
system.cpu.icache.tags.occ_percent::total     0.654763                       # Average percentage of cache occupancy
system.cpu.icache.tags.occ_task_id_blocks::1024         3105                       # Occupied blocks per task id
system.cpu.icache.tags.age_task_id_blocks_1024::0           60                       # Occupied blocks per task id
system.cpu.icache.tags.age_task_id_blocks_1024::1          356                       # Occupied blocks per task id
system.cpu.icache.tags.age_task_id_blocks_1024::2           32                       # Occupied blocks per task id
system.cpu.icache.tags.age_task_id_blocks_1024::3          212                       # Occupied blocks per task id
system.cpu.icache.tags.age_task_id_blocks_1024::4         2445                       # Occupied blocks per task id
system.cpu.icache.tags.occ_task_id_percent::1024     0.758057                       # Percentage of cache occupancy per task id
system.cpu.icache.tags.tag_accesses         171180962                       # Number of tag accesses
system.cpu.icache.tags.data_accesses        171180962                       # Number of data accesses
system.cpu.icache.tags.power_state.pwrStateResidencyTicks::UNDEFINED 137424114500                       # Cumulative time (in ticks) in various power states
system.cpu.interrupts.clk_domain.clock           8000                       # Clock period in ticks
system.cpu.itb.rdAccesses                           0                       # TLB accesses on read requests
system.cpu.itb.wrAccesses                    85588623                       # TLB accesses on write requests
system.cpu.itb.rdMisses                             0                       # TLB misses on read requests
system.cpu.itb.wrMisses                           542                       # TLB misses on write requests
system.cpu.itb.walker.power_state.pwrStateResidencyTicks::UNDEFINED 137424114500                       # Cumulative time (in ticks) in various power states
system.cpu.itb_walker_cache.blocked_cycles::no_mshrs            0                       # number of cycles access was blocked
system.cpu.itb_walker_cache.blocked_cycles::no_targets            0                       # number of cycles access was blocked
system.cpu.itb_walker_cache.blocked::no_mshrs            0                       # number of cycles access was blocked
system.cpu.itb_walker_cache.blocked::no_targets            0                       # number of cycles access was blocked
system.cpu.itb_walker_cache.avg_blocked_cycles::no_mshrs          nan                       # average number of cycles each access was blocked
system.cpu.itb_walker_cache.avg_blocked_cycles::no_targets          nan                       # average number of cycles each access was blocked
system.cpu.itb_walker_cache.replacements            0                       # number of replacements
system.cpu.itb_walker_cache.power_state.pwrStateResidencyTicks::UNDEFINED 137424114500                       # Cumulative time (in ticks) in various power states
system.cpu.itb_walker_cache.tags.tagsinuse            0                       # Cycle average of tags in use
system.cpu.itb_walker_cache.tags.total_refs            0                       # Total number of references to valid blocks.
system.cpu.itb_walker_cache.tags.sampled_refs            0                       # Sample count of references to valid blocks.
system.cpu.itb_walker_cache.tags.avg_refs          nan                       # Average number of references to valid blocks.
system.cpu.itb_walker_cache.tags.warmup_cycle            0                       # Cycle when the warmup percentage was hit.
system.cpu.itb_walker_cache.tags.tag_accesses            0                       # Number of tag accesses
system.cpu.itb_walker_cache.tags.data_accesses            0                       # Number of data accesses
system.cpu.itb_walker_cache.tags.power_state.pwrStateResidencyTicks::UNDEFINED 137424114500                       # Cumulative time (in ticks) in various power states
system.cpu.power_state.pwrStateResidencyTicks::ON 137424114500                       # Cumulative time (in ticks) in various power states
system.cpu.thread_0.numInsts                        0                       # Number of Instructions committed
system.cpu.thread_0.numOps                          0                       # Number of Ops committed
system.cpu.thread_0.numMemRefs                      0                       # Number of Memory References
system.cpu_clk_domain.clock                       500                       # Clock period in ticks
system.cpu_voltage_domain.voltage                   1                       # Voltage in Volts
system.l2.demand_hits::.cpu.inst                   20                       # number of demand (read+write) hits
system.l2.demand_hits::.cpu.data                 5277                       # number of demand (read+write) hits
system.l2.demand_hits::total                     5297                       # number of demand (read+write) hits
system.l2.overall_hits::.cpu.inst                  20                       # number of overall hits
system.l2.overall_hits::.cpu.data                5277                       # number of overall hits
system.l2.overall_hits::total                    5297                       # number of overall hits
system.l2.demand_misses::.cpu.inst               3954                       # number of demand (read+write) misses
system.l2.demand_misses::.cpu.data             185018                       # number of demand (read+write) misses
system.l2.demand_misses::total                 188972                       # number of demand (read+write) misses
system.l2.overall_misses::.cpu.inst              3954                       # number of overall misses
system.l2.overall_misses::.cpu.data            185018                       # number of overall misses
system.l2.overall_misses::total                188972                       # number of overall misses
system.l2.demand_miss_latency::.cpu.inst    303484000                       # number of demand (read+write) miss cycles
system.l2.demand_miss_latency::.cpu.data  15088550000                       # number of demand (read+write) miss cycles
system.l2.demand_miss_latency::total      15392034000                       # number of demand (read+write) miss cycles
system.l2.overall_miss_latency::.cpu.inst    303484000                       # number of overall miss cycles
system.l2.overall_miss_latency::.cpu.data  15088550000                       # number of overall miss cycles
system.l2.overall_miss_latency::total     15392034000                       # number of overall miss cycles
system.l2.demand_accesses::.cpu.inst             3974                       # number of demand (read+write) accesses
system.l2.demand_accesses::.cpu.data           190295                       # number of demand (read+write) accesses
system.l2.demand_accesses::total               194269                       # number of demand (read+write) accesses
system.l2.overall_accesses::.cpu.inst            3974                       # number of overall (read+write) accesses
system.l2.overall_accesses::.cpu.data          190295                       # number of overall (read+write) accesses
system.l2.overall_accesses::total              194269                       # number of overall (read+write) accesses
system.l2.demand_miss_rate::.cpu.inst        0.994967                       # miss rate for demand accesses
system.l2.demand_miss_rate::.cpu.data        0.972269                       # miss rate for demand accesses
system.l2.demand_miss_rate::total            0.972734                       # miss rate for demand accesses
system.l2.overall_miss_rate::.cpu.inst       0.994967                       # miss rate for overall accesses
system.l2.overall_miss_rate::.cpu.data       0.972269                       # miss rate for overall accesses
system.l2.overall_miss_rate::total           0.972734                       # miss rate for overall accesses
system.l2.demand_avg_miss_latency::.cpu.inst 76753.667172                       # average overall miss latency
system.l2.demand_avg_miss_latency::.cpu.data 81551.794960                       # average overall miss latency
system.l2.demand_avg_miss_latency::total 81451.400207                       # average overall miss latency
system.l2.overall_avg_miss_latency::.cpu.inst 76753.667172                       # average overall miss latency
system.l2.overall_avg_miss_latency::.cpu.data 81551.794960                       # average overall miss latency
system.l2.overall_avg_miss_latency::total 81451.400207                       # average overall miss latency
system.l2.blocked_cycles::no_mshrs                  0                       # number of cycles access was blocked
system.l2.blocked_cycles::no_targets                0                       # number of cycles access was blocked
system.l2.blocked::no_mshrs                         0                       # number of cycles access was blocked
system.l2.blocked::no_targets                       0                       # number of cycles access was blocked
system.l2.avg_blocked_cycles::no_mshrs            nan                       # average number of cycles each access was blocked
system.l2.avg_blocked_cycles::no_targets          nan                       # average number of cycles each access was blocked
system.l2.writebacks::.writebacks              146147                       # number of writebacks
system.l2.writebacks::total                    146147                       # number of writebacks
system.l2.demand_mshr_misses::.cpu.inst          3954                       # number of demand (read+write) MSHR misses
system.l2.demand_mshr_misses::.cpu.data        185018                       # number of demand (read+write) MSHR misses
system.l2.demand_mshr_misses::total            188972                       # number of demand (read+write) MSHR misses
system.l2.overall_mshr_misses::.cpu.inst         3954                       # number of overall MSHR misses
system.l2.overall_mshr_misses::.cpu.data       185018                       # number of overall MSHR misses
system.l2.overall_mshr_misses::total           188972                       # number of overall MSHR misses
system.l2.demand_mshr_miss_latency::.cpu.inst    263944000                       # number of demand (read+write) MSHR miss cycles
system.l2.demand_mshr_miss_latency::.cpu.data  13238370000                       # number of demand (read+write) MSHR miss cycles
system.l2.demand_mshr_miss_latency::total  13502314000                       # number of demand (read+write) MSHR miss cycles
system.l2.overall_mshr_miss_latency::.cpu.inst    263944000                       # number of overall MSHR miss cycles
system.l2.overall_mshr_miss_latency::.cpu.data  13238370000                       # number of overall MSHR miss cycles
system.l2.overall_mshr_miss_latency::total  13502314000                       # number of overall MSHR miss cycles
system.l2.demand_mshr_miss_rate::.cpu.inst     0.994967                       # mshr miss rate for demand accesses
system.l2.demand_mshr_miss_rate::.cpu.data     0.972269                       # mshr miss rate for demand accesses
system.l2.demand_mshr_miss_rate::total       0.972734                       # mshr miss rate for demand accesses
system.l2.overall_mshr_miss_rate::.cpu.inst     0.994967                       # mshr miss rate for overall accesses
system.l2.overall_mshr_miss_rate::.cpu.data     0.972269                       # mshr miss rate for overall accesses
system.l2.overall_mshr_miss_rate::total      0.972734                       # mshr miss rate for overall accesses
system.l2.demand_avg_mshr_miss_latency::.cpu.inst 66753.667172                       # average overall mshr miss latency
system.l2.demand_avg_mshr_miss_latency::.cpu.data 71551.794960                       # average overall mshr miss latency
system.l2.demand_avg_mshr_miss_latency::total 71451.400207                       # average overall mshr miss latency
system.l2.overall_avg_mshr_miss_latency::.cpu.inst 66753.667172                       # average overall mshr miss latency
system.l2.overall_avg_mshr_miss_latency::.cpu.data 71551.794960                       # average overall mshr miss latency
system.l2.overall_avg_mshr_miss_latency::total 71451.400207                       # average overall mshr miss latency
system.l2.replacements                         328169                       # number of replacements
system.l2.WritebackDirty_hits::.writebacks       153368                       # number of WritebackDirty hits
system.l2.WritebackDirty_hits::total           153368                       # number of WritebackDirty hits
system.l2.WritebackDirty_accesses::.writebacks       153368                       # number of WritebackDirty accesses(hits+misses)
system.l2.WritebackDirty_accesses::total       153368                       # number of WritebackDirty accesses(hits+misses)
system.l2.WritebackClean_hits::.writebacks          869                       # number of WritebackClean hits
system.l2.WritebackClean_hits::total              869                       # number of WritebackClean hits
system.l2.WritebackClean_accesses::.writebacks          869                       # number of WritebackClean accesses(hits+misses)
system.l2.WritebackClean_accesses::total          869                       # number of WritebackClean accesses(hits+misses)
system.l2.CleanEvict_mshr_misses::.writebacks        26836                       # number of CleanEvict MSHR misses
system.l2.CleanEvict_mshr_misses::total         26836                       # number of CleanEvict MSHR misses
system.l2.CleanEvict_mshr_miss_rate::.writebacks          inf                       # mshr miss rate for CleanEvict accesses
system.l2.CleanEvict_mshr_miss_rate::total          inf                       # mshr miss rate for CleanEvict accesses
system.l2.ReadExReq_hits::.cpu.data               318                       # number of ReadExReq hits
system.l2.ReadExReq_hits::total                   318                       # number of ReadExReq hits
system.l2.ReadExReq_misses::.cpu.data          110602                       # number of ReadExReq misses
system.l2.ReadExReq_misses::total              110602                       # number of ReadExReq misses
system.l2.ReadExReq_miss_latency::.cpu.data   8403875500                       # number of ReadExReq miss cycles
system.l2.ReadExReq_miss_latency::total    8403875500                       # number of ReadExReq miss cycles
system.l2.ReadExReq_accesses::.cpu.data        110920                       # number of ReadExReq accesses(hits+misses)
system.l2.ReadExReq_accesses::total            110920                       # number of ReadExReq accesses(hits+misses)
system.l2.ReadExReq_miss_rate::.cpu.data     0.997133                       # miss rate for ReadExReq accesses
system.l2.ReadExReq_miss_rate::total         0.997133                       # miss rate for ReadExReq accesses
system.l2.ReadExReq_avg_miss_latency::.cpu.data 75983.033761                       # average ReadExReq miss latency
system.l2.ReadExReq_avg_miss_latency::total 75983.033761                       # average ReadExReq miss latency
system.l2.ReadExReq_mshr_misses::.cpu.data       110602                       # number of ReadExReq MSHR misses
system.l2.ReadExReq_mshr_misses::total         110602                       # number of ReadExReq MSHR misses
system.l2.ReadExReq_mshr_miss_latency::.cpu.data   7297855500                       # number of ReadExReq MSHR miss cycles
system.l2.ReadExReq_mshr_miss_latency::total   7297855500                       # number of ReadExReq MSHR miss cycles
system.l2.ReadExReq_mshr_miss_rate::.cpu.data     0.997133                       # mshr miss rate for ReadExReq accesses
system.l2.ReadExReq_mshr_miss_rate::total     0.997133                       # mshr miss rate for ReadExReq accesses
system.l2.ReadExReq_avg_mshr_miss_latency::.cpu.data 65983.033761                       # average ReadExReq mshr miss latency
system.l2.ReadExReq_avg_mshr_miss_latency::total 65983.033761                       # average ReadExReq mshr miss latency
system.l2.ReadCleanReq_hits::.cpu.inst             20                       # number of ReadCleanReq hits
system.l2.ReadCleanReq_hits::total                 20                       # number of ReadCleanReq hits
system.l2.ReadCleanReq_misses::.cpu.inst         3954                       # number of ReadCleanReq misses
system.l2.ReadCleanReq_misses::total             3954                       # number of ReadCleanReq misses
system.l2.ReadCleanReq_miss_latency::.cpu.inst    303484000                       # number of ReadCleanReq miss cycles
system.l2.ReadCleanReq_miss_latency::total    303484000                       # number of ReadCleanReq miss cycles
system.l2.ReadCleanReq_accesses::.cpu.inst         3974                       # number of ReadCleanReq accesses(hits+misses)
system.l2.ReadCleanReq_accesses::total           3974                       # number of ReadCleanReq accesses(hits+misses)
system.l2.ReadCleanReq_miss_rate::.cpu.inst     0.994967                       # miss rate for ReadCleanReq accesses
system.l2.ReadCleanReq_miss_rate::total      0.994967                       # miss rate for ReadCleanReq accesses
system.l2.ReadCleanReq_avg_miss_latency::.cpu.inst 76753.667172                       # average ReadCleanReq miss latency
system.l2.ReadCleanReq_avg_miss_latency::total 76753.667172                       # average ReadCleanReq miss latency
system.l2.ReadCleanReq_mshr_misses::.cpu.inst         3954                       # number of ReadCleanReq MSHR misses
system.l2.ReadCleanReq_mshr_misses::total         3954                       # number of ReadCleanReq MSHR misses
system.l2.ReadCleanReq_mshr_miss_latency::.cpu.inst    263944000                       # number of ReadCleanReq MSHR miss cycles
system.l2.ReadCleanReq_mshr_miss_latency::total    263944000                       # number of ReadCleanReq MSHR miss cycles
system.l2.ReadCleanReq_mshr_miss_rate::.cpu.inst     0.994967                       # mshr miss rate for ReadCleanReq accesses
system.l2.ReadCleanReq_mshr_miss_rate::total     0.994967                       # mshr miss rate for ReadCleanReq accesses
system.l2.ReadCleanReq_avg_mshr_miss_latency::.cpu.inst 66753.667172                       # average ReadCleanReq mshr miss latency
system.l2.ReadCleanReq_avg_mshr_miss_latency::total 66753.667172                       # average ReadCleanReq mshr miss latency
system.l2.ReadSharedReq_hits::.cpu.data          4959                       # number of ReadSharedReq hits
system.l2.ReadSharedReq_hits::total              4959                       # number of ReadSharedReq hits
system.l2.ReadSharedReq_misses::.cpu.data        74416                       # number of ReadSharedReq misses
system.l2.ReadSharedReq_misses::total           74416                       # number of ReadSharedReq misses
system.l2.ReadSharedReq_miss_latency::.cpu.data   6684674500                       # number of ReadSharedReq miss cycles
system.l2.ReadSharedReq_miss_latency::total   6684674500                       # number of ReadSharedReq miss cycles
system.l2.ReadSharedReq_accesses::.cpu.data        79375                       # number of ReadSharedReq accesses(hits+misses)
system.l2.ReadSharedReq_accesses::total         79375                       # number of ReadSharedReq accesses(hits+misses)
system.l2.ReadSharedReq_miss_rate::.cpu.data     0.937524                       # miss rate for ReadSharedReq accesses
system.l2.ReadSharedReq_miss_rate::total     0.937524                       # miss rate for ReadSharedReq accesses
system.l2.ReadSharedReq_avg_miss_latency::.cpu.data 89828.457590                       # average ReadSharedReq miss latency
system.l2.ReadSharedReq_avg_miss_latency::total 89828.457590                       # average ReadSharedReq miss latency
system.l2.ReadSharedReq_mshr_misses::.cpu.data        74416                       # number of ReadSharedReq MSHR misses
system.l2.ReadSharedReq_mshr_misses::total        74416                       # number of ReadSharedReq MSHR misses
system.l2.ReadSharedReq_mshr_miss_latency::.cpu.data   5940514500                       # number of ReadSharedReq MSHR miss cycles
system.l2.ReadSharedReq_mshr_miss_latency::total   5940514500                       # number of ReadSharedReq MSHR miss cycles
system.l2.ReadSharedReq_mshr_miss_rate::.cpu.data     0.937524                       # mshr miss rate for ReadSharedReq accesses
system.l2.ReadSharedReq_mshr_miss_rate::total     0.937524                       # mshr miss rate for ReadSharedReq accesses
system.l2.ReadSharedReq_avg_mshr_miss_latency::.cpu.data 79828.457590                       # average ReadSharedReq mshr miss latency
system.l2.ReadSharedReq_avg_mshr_miss_latency::total 79828.457590                       # average ReadSharedReq mshr miss latency
system.l2.power_state.pwrStateResidencyTicks::UNDEFINED 137424114500                       # Cumulative time (in ticks) in various power states
system.l2.tags.tagsinuse                  4085.915091                       # Cycle average of tags in use
system.l2.tags.total_refs                      354501                       # Total number of references to valid blocks.
system.l2.tags.sampled_refs                    332265                       # Sample count of references to valid blocks.
system.l2.tags.avg_refs                      1.066922                       # Average number of references to valid blocks.
system.l2.tags.warmup_cycle                     77000                       # Cycle when the warmup percentage was hit.
system.l2.tags.occ_blocks::.writebacks    1763.947873                       # Average occupied blocks per requestor
system.l2.tags.occ_blocks::.cpu.inst        28.876156                       # Average occupied blocks per requestor
system.l2.tags.occ_blocks::.cpu.data      2293.091062                       # Average occupied blocks per requestor
system.l2.tags.occ_percent::.writebacks      0.430651                       # Average percentage of cache occupancy
system.l2.tags.occ_percent::.cpu.inst        0.007050                       # Average percentage of cache occupancy
system.l2.tags.occ_percent::.cpu.data        0.559837                       # Average percentage of cache occupancy
system.l2.tags.occ_percent::total            0.997538                       # Average percentage of cache occupancy
system.l2.tags.occ_task_id_blocks::1024          4096                       # Occupied blocks per task id
system.l2.tags.age_task_id_blocks_1024::0          166                       # Occupied blocks per task id
system.l2.tags.age_task_id_blocks_1024::1         1187                       # Occupied blocks per task id
system.l2.tags.age_task_id_blocks_1024::2         2743                       # Occupied blocks per task id
system.l2.tags.occ_task_id_percent::1024            1                       # Percentage of cache occupancy per task id
system.l2.tags.tag_accesses                   1094939                       # Number of tag accesses
system.l2.tags.data_accesses                  1094939                       # Number of data accesses
system.l2.tags.power_state.pwrStateResidencyTicks::UNDEFINED 137424114500                       # Cumulative time (in ticks) in various power states
system.mem_ctrls.avgPriority_.writebacks::samples     79044.00                       # Average QoS priority value for accepted requests
system.mem_ctrls.avgPriority_.cpu.inst::samples      3954.00                       # Average QoS priority value for accepted requests
system.mem_ctrls.avgPriority_.cpu.data::samples    184794.00                       # Average QoS priority value for accepted requests
system.mem_ctrls.priorityMinLatency      0.000000018750                       # per QoS priority minimum request to response latency (s)
system.mem_ctrls.priorityMaxLatency      0.032556912500                       # per QoS priority maximum request to response latency (s)
system.mem_ctrls.numReadWriteTurnArounds         4452                       # Number of turnarounds from READ to WRITE
system.mem_ctrls.numWriteReadTurnArounds         4452                       # Number of turnarounds from WRITE to READ
system.mem_ctrls.numStayReadState              557596                       # Number of times bus staying in READ state
system.mem_ctrls.numStayWriteState              74659                       # Number of times bus staying in WRITE state
system.mem_ctrls.readReqs                      188972                       # Number of read requests accepted
system.mem_ctrls.writeReqs                     146147                       # Number of write requests accepted
system.mem_ctrls.readBursts                    188972                       # Number of controller read bursts, including those serviced by the write queue
system.mem_ctrls.writeBursts                   146147                       # Number of controller write bursts, including those merged in the write queue
system.mem_ctrls.servicedByWrQ                    224                       # Number of controller read bursts serviced by the write queue
system.mem_ctrls.mergedWrBursts                 67103                       # Number of controller write bursts merged with an existing one
system.mem_ctrls.neitherReadNorWriteReqs            0                       # Number of requests that are neither read nor write
system.mem_ctrls.avgRdQLen                       1.00                       # Average read queue length when enqueuing
system.mem_ctrls.avgWrQLen                      23.45                       # Average write queue length when enqueuing
system.mem_ctrls.numRdRetry                         0                       # Number of times read queue was full causing retry
system.mem_ctrls.numWrRetry                         0                       # Number of times write queue was full causing retry
system.mem_ctrls.readPktSize::0                     0                       # Read request sizes (log2)
system.mem_ctrls.readPktSize::1                     0                       # Read request sizes (log2)
system.mem_ctrls.readPktSize::2                     0                       # Read request sizes (log2)
system.mem_ctrls.readPktSize::3                     0                       # Read request sizes (log2)
system.mem_ctrls.readPktSize::4                     0                       # Read request sizes (log2)
system.mem_ctrls.readPktSize::5                188972                       # Read request sizes (log2)
system.mem_ctrls.writePktSize::0                    0                       # Write request sizes (log2)
system.mem_ctrls.writePktSize::1                    0                       # Write request sizes (log2)
system.mem_ctrls.writePktSize::2                    0                       # Write request sizes (log2)
system.mem_ctrls.writePktSize::3                    0                       # Write request sizes (log2)
system.mem_ctrls.writePktSize::4                    0                       # Write request sizes (log2)
system.mem_ctrls.writePktSize::5               146147                       # Write request sizes (log2)
system.mem_ctrls.rdQLenPdf::0                  188727                       # What read queue length does an incoming req see
system.mem_ctrls.rdQLenPdf::1                      21                       # What read queue length does an incoming req see
system.mem_ctrls.rdQLenPdf::2                       0                       # What read queue length does an incoming req see
system.mem_ctrls.rdQLenPdf::3                       0                       # What read queue length does an incoming req see
system.mem_ctrls.rdQLenPdf::4                       0                       # What read queue length does an incoming req see
system.mem_ctrls.rdQLenPdf::5                       0                       # What read queue length does an incoming req see
system.mem_ctrls.rdQLenPdf::6                       0                       # What read queue length does an incoming req see
system.mem_ctrls.rdQLenPdf::7                       0                       # What read queue length does an incoming req see
system.mem_ctrls.rdQLenPdf::8                       0                       # What read queue length does an incoming req see
system.mem_ctrls.rdQLenPdf::9                       0                       # What read queue length does an incoming req see
system.mem_ctrls.rdQLenPdf::10                      0                       # What read queue length does an incoming req see
system.mem_ctrls.rdQLenPdf::11                      0                       # What read queue length does an incoming req see
system.mem_ctrls.rdQLenPdf::12                      0                       # What read queue length does an incoming req see
system.mem_ctrls.rdQLenPdf::13                      0                       # What read queue length does an incoming req see
system.mem_ctrls.rdQLenPdf::14                      0                       # What read queue length does an incoming req see
system.mem_ctrls.rdQLenPdf::15                      0                       # What read queue length does an incoming req see
system.mem_ctrls.rdQLenPdf::16                      0                       # What read queue length does an incoming req see
system.mem_ctrls.rdQLenPdf::17                      0                       # What read queue length does an incoming req see
system.mem_ctrls.rdQLenPdf::18                      0                       # What read queue length does an incoming req see
system.mem_ctrls.rdQLenPdf::19                      0                       # What read queue length does an incoming req see
system.mem_ctrls.rdQLenPdf::20                      0                       # What read queue length does an incoming req see
system.mem_ctrls.rdQLenPdf::21                      0                       # What read queue length does an incoming req see
system.mem_ctrls.rdQLenPdf::22                      0                       # What read queue length does an incoming req see
system.mem_ctrls.rdQLenPdf::23                      0                       # What read queue length does an incoming req see
system.mem_ctrls.rdQLenPdf::24                      0                       # What read queue length does an incoming req see
system.mem_ctrls.rdQLenPdf::25                      0                       # What read queue length does an incoming req see
system.mem_ctrls.rdQLenPdf::26                      0                       # What read queue length does an incoming req see
system.mem_ctrls.rdQLenPdf::27                      0                       # What read queue length does an incoming req see
system.mem_ctrls.rdQLenPdf::28                      0                       # What read queue length does an incoming req see
system.mem_ctrls.rdQLenPdf::29                      0                       # What read queue length does an incoming req see
system.mem_ctrls.rdQLenPdf::30                      0                       # What read queue length does an incoming req see
system.mem_ctrls.rdQLenPdf::31                      0                       # What read queue length does an incoming req see
system.mem_ctrls.wrQLenPdf::0                       1                       # What write queue length does an incoming req see
system.mem_ctrls.wrQLenPdf::1                       1                       # What write queue length does an incoming req see
system.mem_ctrls.wrQLenPdf::2                       1                       # What write queue length does an incoming req see
system.mem_ctrls.wrQLenPdf::3                       1                       # What write queue length does an incoming req see
system.mem_ctrls.wrQLenPdf::4                       1                       # What write queue length does an incoming req see
system.mem_ctrls.wrQLenPdf::5                       1                       # What write queue length does an incoming req see
system.mem_ctrls.wrQLenPdf::6                       1                       # What write queue length does an incoming req see
system.mem_ctrls.wrQLenPdf::7                       1                       # What write queue length does an incoming req see
system.mem_ctrls.wrQLenPdf::8                       1                       # What write queue length does an incoming req see
system.mem_ctrls.wrQLenPdf::9                       1                       # What write queue length does an incoming req see
system.mem_ctrls.wrQLenPdf::10                      1                       # What write queue length does an incoming req see
system.mem_ctrls.wrQLenPdf::11                      1                       # What write queue length does an incoming req see
system.mem_ctrls.wrQLenPdf::12                      1                       # What write queue length does an incoming req see
system.mem_ctrls.wrQLenPdf::13                      1                       # What write queue length does an incoming req see
system.mem_ctrls.wrQLenPdf::14                      1                       # What write queue length does an incoming req see
system.mem_ctrls.wrQLenPdf::15                   3787                       # What write queue length does an incoming req see
system.mem_ctrls.wrQLenPdf::16                   3816                       # What write queue length does an incoming req see
system.mem_ctrls.wrQLenPdf::17                   4339                       # What write queue length does an incoming req see
system.mem_ctrls.wrQLenPdf::18                   4454                       # What write queue length does an incoming req see
system.mem_ctrls.wrQLenPdf::19                   4453                       # What write queue length does an incoming req see
system.mem_ctrls.wrQLenPdf::20                   4453                       # What write queue length does an incoming req see
system.mem_ctrls.wrQLenPdf::21                   4453                       # What write queue length does an incoming req see
system.mem_ctrls.wrQLenPdf::22                   4453                       # What write queue length does an incoming req see
system.mem_ctrls.wrQLenPdf::23                   4482                       # What write queue length does an incoming req see
system.mem_ctrls.wrQLenPdf::24                   4457                       # What write queue length does an incoming req see
system.mem_ctrls.wrQLenPdf::25                   4675                       # What write queue length does an incoming req see
system.mem_ctrls.wrQLenPdf::26                   4483                       # What write queue length does an incoming req see
system.mem_ctrls.wrQLenPdf::27                   4454                       # What write queue length does an incoming req see
system.mem_ctrls.wrQLenPdf::28                   4459                       # What write queue length does an incoming req see
system.mem_ctrls.wrQLenPdf::29                   4452                       # What write queue length does an incoming req see
system.mem_ctrls.wrQLenPdf::30                   4452                       # What write queue length does an incoming req see
system.mem_ctrls.wrQLenPdf::31                   4452                       # What write queue length does an incoming req see
system.mem_ctrls.wrQLenPdf::32                   4452                       # What write queue length does an incoming req see
system.mem_ctrls.wrQLenPdf::33                      3                       # What write queue length does an incoming req see
system.mem_ctrls.wrQLenPdf::34                      0                       # What write queue length does an incoming req see
system.mem_ctrls.wrQLenPdf::35                      0                       # What write queue length does an incoming req see
system.mem_ctrls.wrQLenPdf::36                      0                       # What write queue length does an incoming req see
system.mem_ctrls.wrQLenPdf::37                      0                       # What write queue length does an incoming req see
system.mem_ctrls.wrQLenPdf::38                      0                       # What write queue length does an incoming req see
system.mem_ctrls.wrQLenPdf::39                      0                       # What write queue length does an incoming req see
system.mem_ctrls.wrQLenPdf::40                      0                       # What write queue length does an incoming req see
system.mem_ctrls.wrQLenPdf::41                      0                       # What write queue length does an incoming req see
system.mem_ctrls.wrQLenPdf::42                      0                       # What write queue length does an incoming req see
system.mem_ctrls.wrQLenPdf::43                      0                       # What write queue length does an incoming req see
system.mem_ctrls.wrQLenPdf::44                      0                       # What write queue length does an incoming req see
system.mem_ctrls.wrQLenPdf::45                      0                       # What write queue length does an incoming req see
system.mem_ctrls.wrQLenPdf::46                      0                       # What write queue length does an incoming req see
system.mem_ctrls.wrQLenPdf::47                      0                       # What write queue length does an incoming req see
system.mem_ctrls.wrQLenPdf::48                      0                       # What write queue length does an incoming req see
system.mem_ctrls.wrQLenPdf::49                      0                       # What write queue length does an incoming req see
system.mem_ctrls.wrQLenPdf::50                      0                       # What write queue length does an incoming req see
system.mem_ctrls.wrQLenPdf::51                      0                       # What write queue length does an incoming req see
system.mem_ctrls.wrQLenPdf::52                      0                       # What write queue length does an incoming req see
system.mem_ctrls.wrQLenPdf::53                      0                       # What write queue length does an incoming req see
system.mem_ctrls.wrQLenPdf::54                      0                       # What write queue length does an incoming req see
system.mem_ctrls.wrQLenPdf::55                      0                       # What write queue length does an incoming req see
system.mem_ctrls.wrQLenPdf::56                      0                       # What write queue length does an incoming req see
system.mem_ctrls.wrQLenPdf::57                      0                       # What write queue length does an incoming req see
system.mem_ctrls.wrQLenPdf::58                      0                       # What write queue length does an incoming req see
system.mem_ctrls.wrQLenPdf::59                      0                       # What write queue length does an incoming req see
system.mem_ctrls.wrQLenPdf::60                      0                       # What write queue length does an incoming req see
system.mem_ctrls.wrQLenPdf::61                      0                       # What write queue length does an incoming req see
system.mem_ctrls.wrQLenPdf::62                      0                       # What write queue length does an incoming req see
system.mem_ctrls.wrQLenPdf::63                      0                       # What write queue length does an incoming req see
system.mem_ctrls.rdPerTurnAround::samples         4452                       # Reads before turning the bus around for writes
system.mem_ctrls.rdPerTurnAround::mean      42.394429                       # Reads before turning the bus around for writes
system.mem_ctrls.rdPerTurnAround::stdev    128.289319                       # Reads before turning the bus around for writes
system.mem_ctrls.rdPerTurnAround::0-255          4430     99.51%     99.51% # Reads before turning the bus around for writes
system.mem_ctrls.rdPerTurnAround::256-511           14      0.31%     99.82% # Reads before turning the bus around for writes
system.mem_ctrls.rdPerTurnAround::512-767            4      0.09%     99.91% # Reads before turning the bus around for writes
system.mem_ctrls.rdPerTurnAround::768-1023            1      0.02%     99.93% # Reads before turning the bus around for writes
system.mem_ctrls.rdPerTurnAround::1024-1279            1      0.02%     99.96% # Reads before turning the bus around for writes
system.mem_ctrls.rdPerTurnAround::5120-5375            1      0.02%     99.98% # Reads before turning the bus around for writes
system.mem_ctrls.rdPerTurnAround::6144-6399            1      0.02%    100.00% # Reads before turning the bus around for writes
system.mem_ctrls.rdPerTurnAround::total          4452                       # Reads before turning the bus around for writes
system.mem_ctrls.wrPerTurnAround::samples         4452                       # Writes before turning the bus around for reads
system.mem_ctrls.wrPerTurnAround::mean      17.750225                       # Writes before turning the bus around for reads
system.mem_ctrls.wrPerTurnAround::gmean     17.733694                       # Writes before turning the bus around for reads
system.mem_ctrls.wrPerTurnAround::stdev      0.747985                       # Writes before turning the bus around for reads
system.mem_ctrls.wrPerTurnAround::16              637     14.31%     14.31% # Writes before turning the bus around for reads
system.mem_ctrls.wrPerTurnAround::17               29      0.65%     14.96% # Writes before turning the bus around for reads
system.mem_ctrls.wrPerTurnAround::18             3595     80.75%     95.71% # Writes before turning the bus around for reads
system.mem_ctrls.wrPerTurnAround::19              191      4.29%    100.00% # Writes before turning the bus around for reads
system.mem_ctrls.wrPerTurnAround::total          4452                       # Writes before turning the bus around for reads
system.mem_ctrls.bytesReadWrQ                   14336                       # Total number of bytes read from write queue
system.mem_ctrls.bytesReadSys                 6047104                       # Total read bytes from the system interface side
system.mem_ctrls.bytesWrittenSys              4676704                       # Total written bytes from the system interface side
system.mem_ctrls.avgRdBWSys                     44.00                       # Average system read bandwidth in MiByte/s
system.mem_ctrls.avgWrBWSys                     34.03                       # Average system write bandwidth in MiByte/s
system.mem_ctrls.totGap                  137424040500                       # Total gap between requests
system.mem_ctrls.avgGap                     410075.35                       # Average gap between requests
system.mem_ctrls.requestorReadBytes::.cpu.inst       126528                       # Per-requestor bytes read from memory
[...]
system.mem_ctrls.dram.bw_total::.cpu.data     43082512                       # Total bandwidth to/from this memory (bytes/s)
system.mem_ctrls.dram.bw_total::total        78034398                       # Total bandwidth to/from this memory (bytes/s)
system.mem_ctrls.dram.readBursts               188748                       # Number of DRAM read bursts
system.mem_ctrls.dram.writeBursts               79024                       # Number of DRAM write bursts
system.mem_ctrls.dram.perBankRdBursts::0        12281                       # Per bank write bursts
system.mem_ctrls.dram.perBankRdBursts::1        12259                       # Per bank write bursts
system.mem_ctrls.dram.perBankRdBursts::2        11859                       # Per bank write bursts
system.mem_ctrls.dram.perBankRdBursts::3        12684                       # Per bank write bursts
system.mem_ctrls.dram.perBankRdBursts::4        11630                       # Per bank write bursts
system.mem_ctrls.dram.perBankRdBursts::5        11181                       # Per bank write bursts
system.mem_ctrls.dram.perBankRdBursts::6        10824                       # Per bank write bursts
system.mem_ctrls.dram.perBankRdBursts::7        11684                       # Per bank write bursts
system.mem_ctrls.dram.perBankRdBursts::8        12165                       # Per bank write bursts
system.mem_ctrls.dram.perBankRdBursts::9        12621                       # Per bank write bursts
system.mem_ctrls.dram.perBankRdBursts::10        12369                       # Per bank write bursts
system.mem_ctrls.dram.perBankRdBursts::11        11715                       # Per bank write bursts
system.mem_ctrls.dram.perBankRdBursts::12        11290                       # Per bank write bursts
system.mem_ctrls.dram.perBankRdBursts::13        11013                       # Per bank write bursts
system.mem_ctrls.dram.perBankRdBursts::14        11375                       # Per bank write bursts
system.mem_ctrls.dram.perBankRdBursts::15        11798                       # Per bank write bursts
system.mem_ctrls.dram.perBankWrBursts::0         5157                       # Per bank write bursts
system.mem_ctrls.dram.perBankWrBursts::1         5053                       # Per bank write bursts
system.mem_ctrls.dram.perBankWrBursts::2         4974                       # Per bank write bursts
system.mem_ctrls.dram.perBankWrBursts::3         5123                       # Per bank write bursts
system.mem_ctrls.dram.perBankWrBursts::4         4721                       # Per bank write bursts
system.mem_ctrls.dram.perBankWrBursts::5         4716                       # Per bank write bursts
system.mem_ctrls.dram.perBankWrBursts::6         4760                       # Per bank write bursts
system.mem_ctrls.dram.perBankWrBursts::7         4637                       # Per bank write bursts
system.mem_ctrls.dram.perBankWrBursts::8         5150                       # Per bank write bursts
system.mem_ctrls.dram.perBankWrBursts::9         5155                       # Per bank write bursts
system.mem_ctrls.dram.perBankWrBursts::10         4982                       # Per bank write bursts
system.mem_ctrls.dram.perBankWrBursts::11         5022                       # Per bank write bursts
system.mem_ctrls.dram.perBankWrBursts::12         5031                       # Per bank write bursts
system.mem_ctrls.dram.perBankWrBursts::13         4746                       # Per bank write bursts
system.mem_ctrls.dram.perBankWrBursts::14         4917                       # Per bank write bursts
system.mem_ctrls.dram.perBankWrBursts::15         4880                       # Per bank write bursts
system.mem_ctrls.dram.totQLat              2237671500                       # Total ticks spent queuing
system.mem_ctrls.dram.totBusLat             943740000                       # Total ticks spent in databus transfers
system.mem_ctrls.dram.totMemAccLat         5776696500                       # Total ticks spent from burst creation until serviced by the DRAM
system.mem_ctrls.dram.avgQLat                11855.34                       # Average queueing delay per DRAM burst
system.mem_ctrls.dram.avgBusLat               5000.00                       # Average bus latency per DRAM burst
system.mem_ctrls.dram.avgMemAccLat           30605.34                       # Average memory access latency per DRAM burst
system.mem_ctrls.dram.readRowHits              120015                       # Number of row buffer hits during reads
system.mem_ctrls.dram.writeRowHits              68640                       # Number of row buffer hits during writes
system.mem_ctrls.dram.readRowHitRate            63.58                       # Row buffer hit rate for reads
system.mem_ctrls.dram.writeRowHitRate           86.86                       # Row buffer hit rate for writes
system.mem_ctrls.dram.bytesPerActivate::samples        79106                       # Bytes accessed per row activation
system.mem_ctrls.dram.bytesPerActivate::mean   216.586757                       # Bytes accessed per row activation
system.mem_ctrls.dram.bytesPerActivate::gmean   124.476272                       # Bytes accessed per row activation
system.mem_ctrls.dram.bytesPerActivate::stdev   274.711472                       # Bytes accessed per row activation
system.mem_ctrls.dram.bytesPerActivate::0-127        49030     61.98%     61.98% # Bytes accessed per row activation
system.mem_ctrls.dram.bytesPerActivate::128-255         6922      8.75%     70.73% # Bytes accessed per row activation
system.mem_ctrls.dram.bytesPerActivate::256-383        10384     13.13%     83.86% # Bytes accessed per row activation
system.mem_ctrls.dram.bytesPerActivate::384-511         1929      2.44%     86.30% # Bytes accessed per row activation
system.mem_ctrls.dram.bytesPerActivate::512-639         1782      2.25%     88.55% # Bytes accessed per row activation
system.mem_ctrls.dram.bytesPerActivate::640-767         2062      2.61%     91.15% # Bytes accessed per row activation
system.mem_ctrls.dram.bytesPerActivate::768-895         1109      1.40%     92.56% # Bytes accessed per row activation
system.mem_ctrls.dram.bytesPerActivate::896-1023         1135      1.43%     93.99% # Bytes accessed per row activation
system.mem_ctrls.dram.bytesPerActivate::1024-1151         4753      6.01%    100.00% # Bytes accessed per row activation
system.mem_ctrls.dram.bytesPerActivate::total        79106                       # Bytes accessed per row activation
system.mem_ctrls.dram.bytesRead              12079872                       # Total number of bytes read from DRAM
system.mem_ctrls.dram.bytesWritten            5057536                       # Total number of bytes written to DRAM
system.mem_ctrls.dram.avgRdBW               87.902127                       # Average DRAM read bandwidth in MiBytes/s
system.mem_ctrls.dram.avgWrBW               36.802391                       # Average DRAM write bandwidth in MiBytes/s
system.mem_ctrls.dram.peakBW                 12800.00                       # Theoretical peak bandwidth in MiByte/s
system.mem_ctrls.dram.busUtil                    0.97                       # Data bus utilization in percentage
system.mem_ctrls.dram.busUtilRead                0.69                       # Data bus utilization in percentage for reads
system.mem_ctrls.dram.busUtilWrite               0.29                       # Data bus utilization in percentage for writes
system.mem_ctrls.dram.pageHitRate               70.45                       # Row buffer hit rate, read and write combined
system.mem_ctrls.dram.power_state.pwrStateResidencyTicks::UNDEFINED 137424114500                       # Cumulative time (in ticks) in various power states
system.mem_ctrls.dram.rank0.actEnergy       283900680                       # Energy for activate commands per rank (pJ)
system.mem_ctrls.dram.rank0.preEnergy       150870225                       # Energy for precharge commands per rank (pJ)
system.mem_ctrls.dram.rank0.readEnergy      674030280                       # Energy for read commands per rank (pJ)
system.mem_ctrls.dram.rank0.writeEnergy     204316020                       # Energy for write commands per rank (pJ)
system.mem_ctrls.dram.rank0.refreshEnergy 10847781360.000002                       # Energy for refresh commands per rank (pJ)
system.mem_ctrls.dram.rank0.actBackEnergy  24322345170                       # Energy for active background per rank (pJ)
system.mem_ctrls.dram.rank0.preBackEnergy  32288885280                       # Energy for precharge background per rank (pJ)
system.mem_ctrls.dram.rank0.actPowerDownEnergy            0                       # Energy for active power-down per rank (pJ)
system.mem_ctrls.dram.rank0.prePowerDownEnergy            0                       # Energy for precharge power-down per rank (pJ)
system.mem_ctrls.dram.rank0.selfRefreshEnergy            0                       # Energy for self refresh per rank (pJ)
system.mem_ctrls.dram.rank0.totalEnergy   68772129015                       # Total energy per rank (pJ)
system.mem_ctrls.dram.rank0.averagePower   500.437127                       # Core power per rank (mW)
system.mem_ctrls.dram.rank0.totalIdleTime            0                       # Total Idle time Per DRAM Rank
system.mem_ctrls.dram.rank0.pwrStateTime::IDLE  83548304500                       # Time in different power states
system.mem_ctrls.dram.rank0.pwrStateTime::REF   4588740000                       # Time in different power states
system.mem_ctrls.dram.rank0.pwrStateTime::SREF            0                       # Time in different power states
system.mem_ctrls.dram.rank0.pwrStateTime::PRE_PDN            0                       # Time in different power states
system.mem_ctrls.dram.rank0.pwrStateTime::ACT  49287070000                       # Time in different power states
system.mem_ctrls.dram.rank0.pwrStateTime::ACT_PDN            0                       # Time in different power states
system.mem_ctrls.dram.rank1.actEnergy       280994700                       # Energy for activate commands per rank (pJ)
system.mem_ctrls.dram.rank1.preEnergy       149337045                       # Energy for precharge commands per rank (pJ)
system.mem_ctrls.dram.rank1.readEnergy      673630440                       # Energy for read commands per rank (pJ)
system.mem_ctrls.dram.rank1.writeEnergy     208189260                       # Energy for write commands per rank (pJ)
system.mem_ctrls.dram.rank1.refreshEnergy 10847781360.000002                       # Energy for refresh commands per rank (pJ)
system.mem_ctrls.dram.rank1.actBackEnergy  24909035910                       # Energy for active background per rank (pJ)
system.mem_ctrls.dram.rank1.preBackEnergy  31794829920                       # Energy for precharge background per rank (pJ)
system.mem_ctrls.dram.rank1.actPowerDownEnergy            0                       # Energy for active power-down per rank (pJ)
system.mem_ctrls.dram.rank1.prePowerDownEnergy            0                       # Energy for precharge power-down per rank (pJ)
system.mem_ctrls.dram.rank1.selfRefreshEnergy            0                       # Energy for self refresh per rank (pJ)
system.mem_ctrls.dram.rank1.totalEnergy   68863798635                       # Total energy per rank (pJ)
system.mem_ctrls.dram.rank1.averagePower   501.104183                       # Core power per rank (mW)
system.mem_ctrls.dram.rank1.totalIdleTime            0                       # Total Idle time Per DRAM Rank
system.mem_ctrls.dram.rank1.pwrStateTime::IDLE  82203402000                       # Time in different power states
system.mem_ctrls.dram.rank1.pwrStateTime::REF   4588740000                       # Time in different power states
system.mem_ctrls.dram.rank1.pwrStateTime::SREF            0                       # Time in different power states
system.mem_ctrls.dram.rank1.pwrStateTime::PRE_PDN            0                       # Time in different power states
system.mem_ctrls.dram.rank1.pwrStateTime::ACT  50631972500                       # Time in different power states
system.mem_ctrls.dram.rank1.pwrStateTime::ACT_PDN            0                       # Time in different power states
system.mem_ctrls.power_state.pwrStateResidencyTicks::UNDEFINED 137424114500                       # Cumulative time (in ticks) in various power states
system.membus.trans_dist::ReadResp              78370                       # Transaction distribution
system.membus.trans_dist::WritebackDirty       146147                       # Transaction distribution
system.membus.trans_dist::CleanEvict            33291                       # Transaction distribution
system.membus.trans_dist::ReadExReq            110602                       # Transaction distribution
system.membus.trans_dist::ReadExResp           110602                       # Transaction distribution
system.membus.trans_dist::ReadSharedReq         78370                       # Transaction distribution
system.membus.pkt_count_system.l2.mem_side_port::system.mem_ctrls.port       557382                       # Packet count per connected requestor and responder (bytes)
system.membus.pkt_count_system.l2.mem_side_port::total       557382                       # Packet count per connected requestor and responder (bytes)
system.membus.pkt_count::total                 557382                       # Packet count per connected requestor and responder (bytes)
system.membus.pkt_size_system.l2.mem_side_port::system.mem_ctrls.port     10723808                       # Cumulative packet size per connected requestor and responder (bytes)
system.membus.pkt_size_system.l2.mem_side_port::total     10723808                       # Cumulative packet size per connected requestor and responder (bytes)
system.membus.pkt_size::total                10723808                       # Cumulative packet size per connected requestor and responder (bytes)
system.membus.snoops                                0                       # Total snoops (count)
system.membus.snoopTraffic                          0                       # Total snoop traffic (bytes)
system.membus.snoop_fanout::samples            188972                       # Request fanout histogram
system.membus.snoop_fanout::mean                    0                       # Request fanout histogram
system.membus.snoop_fanout::stdev                   0                       # Request fanout histogram
system.membus.snoop_fanout::underflows              0      0.00%      0.00% # Request fanout histogram
system.membus.snoop_fanout::0                  188972    100.00%    100.00% # Request fanout histogram
system.membus.snoop_fanout::1                       0      0.00%    100.00% # Request fanout histogram
system.membus.snoop_fanout::overflows               0      0.00%    100.00% # Request fanout histogram
system.membus.snoop_fanout::min_value               0                       # Request fanout histogram
system.membus.snoop_fanout::max_value               0                       # Request fanout histogram
system.membus.snoop_fanout::total              188972                       # Request fanout histogram
system.membus.power_state.pwrStateResidencyTicks::UNDEFINED 137424114500                       # Cumulative time (in ticks) in various power states
system.membus.reqLayer2.occupancy           660743500                       # Layer occupancy (ticks)
system.membus.reqLayer2.utilization               0.5                       # Layer utilization (%)
system.membus.respLayer1.occupancy          641272500                       # Layer occupancy (ticks)
system.membus.respLayer1.utilization              0.5                       # Layer utilization (%)
system.tol2bus.trans_dist::ReadResp             83349                       # Transaction distribution
system.tol2bus.trans_dist::WritebackDirty       299515                       # Transaction distribution
system.tol2bus.trans_dist::WritebackClean          869                       # Transaction distribution
system.tol2bus.trans_dist::CleanEvict          214853                       # Transaction distribution
system.tol2bus.trans_dist::ReadExReq           110920                       # Transaction distribution
system.tol2bus.trans_dist::ReadExResp          110920                       # Transaction distribution
system.tol2bus.trans_dist::ReadCleanReq          3974                       # Transaction distribution
system.tol2bus.trans_dist::ReadSharedReq        79375                       # Transaction distribution
system.tol2bus.pkt_count_system.cpu.icache.mem_side_port::system.l2.cpu_side_port         8817                       # Packet count per connected requestor and responder (bytes)
system.tol2bus.pkt_count_system.cpu.dcache.mem_side_port::system.l2.cpu_side_port       566789                       # Packet count per connected requestor and responder (bytes)
system.tol2bus.pkt_count::total                575606                       # Packet count per connected requestor and responder (bytes)
system.tol2bus.pkt_size_system.cpu.icache.mem_side_port::system.l2.cpu_side_port       154976                       # Cumulative packet size per connected requestor and responder (bytes)
system.tol2bus.pkt_size_system.cpu.dcache.mem_side_port::system.l2.cpu_side_port     10997216                       # Cumulative packet size per connected requestor and responder (bytes)
system.tol2bus.pkt_size::total               11152192                       # Cumulative packet size per connected requestor and responder (bytes)
system.tol2bus.snoops                          328169                       # Total snoops (count)
system.tol2bus.snoopTraffic                   4676704                       # Total snoop traffic (bytes)
system.tol2bus.snoop_fanout::samples           522438                       # Request fanout histogram
system.tol2bus.snoop_fanout::mean            0.336053                       # Request fanout histogram
system.tol2bus.snoop_fanout::stdev           0.472358                       # Request fanout histogram
system.tol2bus.snoop_fanout::underflows             0      0.00%      0.00% # Request fanout histogram
system.tol2bus.snoop_fanout::0                 346871     66.39%     66.39% # Request fanout histogram
system.tol2bus.snoop_fanout::1                 175567     33.61%    100.00% # Request fanout histogram
system.tol2bus.snoop_fanout::2                      0      0.00%    100.00% # Request fanout histogram
system.tol2bus.snoop_fanout::3                      0      0.00%    100.00% # Request fanout histogram
system.tol2bus.snoop_fanout::4                      0      0.00%    100.00% # Request fanout histogram
system.tol2bus.snoop_fanout::overflows              0      0.00%    100.00% # Request fanout histogram
system.tol2bus.snoop_fanout::min_value              0                       # Request fanout histogram
system.tol2bus.snoop_fanout::max_value              1                       # Request fanout histogram
system.tol2bus.snoop_fanout::total             522438                       # Request fanout histogram
system.tol2bus.power_state.pwrStateResidencyTicks::UNDEFINED 137424114500                       # Cumulative time (in ticks) in various power states
system.tol2bus.reqLayer0.occupancy          267787000                       # Layer occupancy (ticks)
system.tol2bus.reqLayer0.utilization              0.2                       # Layer utilization (%)
system.tol2bus.respLayer0.occupancy           3974000                       # Layer occupancy (ticks)
system.tol2bus.respLayer0.utilization             0.0                       # Layer utilization (%)
system.tol2bus.respLayer1.occupancy         190295000                       # Layer occupancy (ticks)
system.tol2bus.respLayer1.utilization             0.1                       # Layer utilization (%)
system.voltage_domain.voltage                       1                       # Voltage in Volts

---------- End Simulation Statistics   ----------
