
---------- Begin Simulation Statistics ----------
final_tick                               137356953500                       # Number of ticks from beginning of simulation (restored from checkpoints and never reset)
host_inst_rate                                 502265                       # Simulator instruction rate (inst/s)
host_mem_usage                                 712676                       # Number of bytes of host memory used
host_op_rate                                   768337                       # Simulator op (including micro ops) rate (op/s)
host_seconds                                   126.30                       # Real time elapsed on the host
host_tick_rate                             1087530345                       # Simulator tick rate (ticks/s)
sim_freq                                 1000000000000                       # Frequency of simulated ticks
sim_insts                                    63436878                       # Number of instructions simulated
sim_ops                                      97042210                       # Number of ops (including micro ops) simulated
sim_seconds                                  0.137357                       # Number of seconds simulated
sim_ticks                                137356953500                       # Number of ticks simulated
system.cpu.Branches                           7714393                       # Number of branches fetched
system.cpu.committedInsts                    63436878                       # Number of instructions committed
system.cpu.committedOps                      97042210                       # Number of ops (including micro ops) committed
system.cpu.idle_fraction                     0.000000                       # Percentage of idle cycles
system.cpu.not_idle_fraction                 1.000000                       # Percentage of non-idle cycles
system.cpu.numCycles                        274713907                       # number of cpu cycles simulated
system.cpu.numWorkItemsCompleted                    0                       # number of work items this cpu completed
system.cpu.numWorkItemsStarted                      0                       # number of work items this cpu started
system.cpu.num_busy_cycles               274713906.998000                       # Number of busy cycles
system.cpu.num_cc_register_reads             29902185                       # number of times the CC registers were read
system.cpu.num_cc_register_writes            27168373                       # number of times the CC registers were written
system.cpu.num_conditional_control_insts      4234783                       # number of instructions that are conditional controls
system.cpu.num_fp_alu_accesses                  85206                       # Number of float alu accesses
system.cpu.num_fp_insts                         85206                       # number of float instructions
system.cpu.num_fp_register_reads               119500                       # number of times the floating registers were read
system.cpu.num_fp_register_writes               63458                       # number of times the floating registers were written
system.cpu.num_func_calls                     1924148                       # number of times a function call or return occured
system.cpu.num_idle_cycles                   0.002000                       # Number of idle cycles
system.cpu.num_int_alu_accesses              95088667                       # Number of integer alu accesses
system.cpu.num_int_insts                     95088667                       # number of integer instructions
system.cpu.num_int_register_reads           214307208                       # number of times the integer registers were read
system.cpu.num_int_register_writes           77409627                       # number of times the integer registers were written
system.cpu.num_load_insts                    26073751                       # Number of load instructions
system.cpu.num_mem_refs                      36099173                       # number of memory refs
system.cpu.num_store_insts                   10025422                       # Number of store instructions
system.cpu.num_vec_alu_accesses                     0                       # Number of vector alu accesses
system.cpu.num_vec_insts                            0                       # number of vector instructions
system.cpu.num_vec_register_reads                   0                       # number of times the vector registers were read
system.cpu.num_vec_register_writes                  0                       # number of times the vector registers were written
system.cpu.op_class::No_OpClass                976243      1.01%      1.01% # Class of executed instruction
system.cpu.op_class::IntAlu                  59879192     61.70%     62.71% # Class of executed instruction
system.cpu.op_class::IntMult                       74      0.00%     62.71% # Class of executed instruction
system.cpu.op_class::IntDiv                     36240      0.04%     62.75% # Class of executed instruction
system.cpu.op_class::FloatAdd                    5590      0.01%     62.75% # Class of executed instruction
system.cpu.op_class::FloatCmp                       0      0.00%     62.75% # Class of executed instruction
system.cpu.op_class::FloatCvt                    1232      0.00%     62.75% # Class of executed instruction
system.cpu.op_class::FloatMult                      0      0.00%     62.75% # Class of executed instruction
system.cpu.op_class::FloatMultAcc                   0      0.00%     62.75% # Class of executed instruction
system.cpu.op_class::FloatDiv                       0      0.00%     62.75% # Class of executed instruction
system.cpu.op_class::FloatMisc                      0      0.00%     62.75% # Class of executed instruction
system.cpu.op_class::FloatSqrt                      0      0.00%     62.75% # Class of executed instruction
system.cpu.op_class::SimdAdd                     6716      0.01%     62.76% # Class of executed instruction
system.cpu.op_class::SimdAddAcc                     0      0.00%     62.76% # Class of executed instruction
system.cpu.op_class::SimdAlu                    12162      0.01%     62.77% # Class of executed instruction
system.cpu.op_class::SimdCmp                        6      0.00%     62.77% # Class of executed instruction
system.cpu.op_class::SimdCvt                    13804      0.01%     62.79% # Class of executed instruction
system.cpu.op_class::SimdMisc                   12230      0.01%     62.80% # Class of executed instruction
system.cpu.op_class::SimdMult                       0      0.00%     62.80% # Class of executed instruction
system.cpu.op_class::SimdMultAcc                    0      0.00%     62.80% # Class of executed instruction
system.cpu.op_class::SimdShift                    436      0.00%     62.80% # Class of executed instruction
system.cpu.op_class::SimdShiftAcc                   0      0.00%     62.80% # Class of executed instruction
system.cpu.op_class::SimdDiv                        0      0.00%     62.80% # Class of executed instruction
system.cpu.op_class::SimdSqrt                       0      0.00%     62.80% # Class of executed instruction
system.cpu.op_class::SimdFloatAdd                  10      0.00%     62.80% # Class of executed instruction
system.cpu.op_class::SimdFloatAlu                   0      0.00%     62.80% # Class of executed instruction
system.cpu.op_class::SimdFloatCmp                   0      0.00%     62.80% # Class of executed instruction
system.cpu.op_class::SimdFloatCvt                  30      0.00%     62.80% # Class of executed instruction
system.cpu.op_class::SimdFloatDiv                   0      0.00%     62.80% # Class of executed instruction
system.cpu.op_class::SimdFloatMisc                  0      0.00%     62.80% # Class of executed instruction
system.cpu.op_class::SimdFloatMult                 12      0.00%     62.80% # Class of executed instruction
system.cpu.op_class::SimdFloatMultAcc               0      0.00%     62.80% # Class of executed instruction
system.cpu.op_class::SimdFloatSqrt                  0      0.00%     62.80% # Class of executed instruction
system.cpu.op_class::SimdReduceAdd                  0      0.00%     62.80% # Class of executed instruction
system.cpu.op_class::SimdReduceAlu                  0      0.00%     62.80% # Class of executed instruction
system.cpu.op_class::SimdReduceCmp                  0      0.00%     62.80% # Class of executed instruction
system.cpu.op_class::SimdFloatReduceAdd             0      0.00%     62.80% # Class of executed instruction
system.cpu.op_class::SimdFloatReduceCmp             0      0.00%     62.80% # Class of executed instruction
system.cpu.op_class::SimdAes                        0      0.00%     62.80% # Class of executed instruction
system.cpu.op_class::SimdAesMix                     0      0.00%     62.80% # Class of executed instruction
system.cpu.op_class::SimdSha1Hash                   0      0.00%     62.80% # Class of executed instruction
system.cpu.op_class::SimdSha1Hash2                  0      0.00%     62.80% # Class of executed instruction
system.cpu.op_class::SimdSha256Hash                 0      0.00%     62.80% # Class of executed instruction
system.cpu.op_class::SimdSha256Hash2                0      0.00%     62.80% # Class of executed instruction
system.cpu.op_class::SimdShaSigma2                  0      0.00%     62.80% # Class of executed instruction
system.cpu.op_class::SimdShaSigma3                  0      0.00%     62.80% # Class of executed instruction
system.cpu.op_class::SimdPredAlu                    0      0.00%     62.80% # Class of executed instruction
system.cpu.op_class::MemRead                 26056914     26.85%     89.65% # Class of executed instruction
system.cpu.op_class::MemWrite                10011984     10.32%     99.97% # Class of executed instruction
system.cpu.op_class::FloatMemRead               16837      0.02%     99.99% # Class of executed instruction
system.cpu.op_class::FloatMemWrite              13438      0.01%    100.00% # Class of executed instruction
system.cpu.op_class::IprAccess                      0      0.00%    100.00% # Class of executed instruction
system.cpu.op_class::InstPrefetch                   0      0.00%    100.00% # Class of executed instruction
system.cpu.op_class::total                   97043150                       # Class of executed instruction
system.cpu.workload.numSyscalls                   100                       # Number of system calls
system.membus.snoop_filter.hit_multi_requests            0                       # Number of requests hitting in the snoop filter with multiple (>1) holders of the requested data.
system.membus.snoop_filter.hit_multi_snoops            0                       # Number of snoops hitting in the snoop filter with multiple (>1) holders of the requested data.
system.membus.snoop_filter.hit_single_requests       179594                       # Number of requests hitting in the snoop filter with a single holder of the requested data.
system.membus.snoop_filter.hit_single_snoops            0                       # Number of snoops hitting in the snoop filter with a single holder of the requested data.
system.membus.snoop_filter.tot_requests        368681                       # Total number of requests made to the snoop filter.
system.membus.snoop_filter.tot_snoops               0                       # Total number of snoops made to the snoop filter.
system.tol2bus.snoop_filter.hit_multi_requests            0                       # Number of requests hitting in the snoop filter with multiple (>1) holders of the requested data.
system.tol2bus.snoop_filter.hit_multi_snoops            0                       # Number of snoops hitting in the snoop filter with multiple (>1) holders of the requested data.
system.tol2bus.snoop_filter.hit_single_requests       186269                       # Number of requests hitting in the snoop filter with a single holder of the requested data.
system.tol2bus.snoop_filter.hit_single_snoops       177527                       # Number of snoops hitting in the snoop filter with a single holder of the requested data.
system.tol2bus.snoop_filter.tot_requests       379739                       # Total number of requests made to the snoop filter.
system.tol2bus.snoop_filter.tot_snoops         177527                       # Total number of snoops made to the snoop filter.
system.clk_domain.clock                          1000                       # Clock period in ticks
system.cpu.dcache.demand_hits::.cpu.data     35941978                       # number of demand (read+write) hits
system.cpu.dcache.demand_hits::total         35941978                       # number of demand (read+write) hits
system.cpu.dcache.overall_hits::.cpu.data     35941978                       # number of overall hits
system.cpu.dcache.overall_hits::total        35941978                       # number of overall hits
system.cpu.dcache.demand_misses::.cpu.data       189496                       # number of demand (read+write) misses
system.cpu.dcache.demand_misses::total         189496                       # number of demand (read+write) misses
system.cpu.dcache.overall_misses::.cpu.data       189496                       # number of overall misses
system.cpu.dcache.overall_misses::total        189496                       # number of overall misses
system.cpu.dcache.demand_miss_latency::.cpu.data  15554222500                       # number of demand (read+write) miss cycles
system.cpu.dcache.demand_miss_latency::total  15554222500                       # number of demand (read+write) miss cycles
system.cpu.dcache.overall_miss_latency::.cpu.data  15554222500                       # number of overall miss cycles
system.cpu.dcache.overall_miss_latency::total  15554222500                       # number of overall miss cycles
system.cpu.dcache.demand_accesses::.cpu.data     36131474                       # number of demand (read+write) accesses
system.cpu.dcache.demand_accesses::total     36131474                       # number of demand (read+write) accesses
system.cpu.dcache.overall_accesses::.cpu.data     36131474                       # number of overall (read+write) accesses
system.cpu.dcache.overall_accesses::total     36131474                       # number of overall (read+write) accesses
system.cpu.dcache.demand_miss_rate::.cpu.data     0.005245                       # miss rate for demand accesses
system.cpu.dcache.demand_miss_rate::total     0.005245                       # miss rate for demand accesses
system.cpu.dcache.overall_miss_rate::.cpu.data     0.005245                       # miss rate for overall accesses
system.cpu.dcache.overall_miss_rate::total     0.005245                       # miss rate for overall accesses
system.cpu.dcache.demand_avg_miss_latency::.cpu.data 82082.062418                       # average overall miss latency
system.cpu.dcache.demand_avg_miss_latency::total 82082.062418                       # average overall miss latency
system.cpu.dcache.overall_avg_miss_latency::.cpu.data 82082.062418                       # average overall miss latency
system.cpu.dcache.overall_avg_miss_latency::total 82082.062418                       # average overall miss latency
system.cpu.dcache.blocked_cycles::no_mshrs            0                       # number of cycles access was blocked
system.cpu.dcache.blocked_cycles::no_targets            0                       # number of cycles access was blocked
system.cpu.dcache.blocked::no_mshrs                 0                       # number of cycles access was blocked
system.cpu.dcache.blocked::no_targets               0                       # number of cycles access was blocked
system.cpu.dcache.avg_blocked_cycles::no_mshrs          nan                       # average number of cycles each access was blocked
system.cpu.dcache.avg_blocked_cycles::no_targets          nan                       # average number of cycles each access was blocked
system.cpu.dcache.writebacks::.writebacks       152290                       # number of writebacks
system.cpu.dcache.writebacks::total            152290                       # number of writebacks
system.cpu.dcache.demand_mshr_misses::.cpu.data       189496                       # number of demand (read+write) MSHR misses
system.cpu.dcache.demand_mshr_misses::total       189496                       # number of demand (read+write) MSHR misses
system.cpu.dcache.overall_mshr_misses::.cpu.data       189496                       # number of overall MSHR misses
system.cpu.dcache.overall_mshr_misses::total       189496                       # number of overall MSHR misses
system.cpu.dcache.demand_mshr_miss_latency::.cpu.data  15364726500                       # number of demand (read+write) MSHR miss cycles
system.cpu.dcache.demand_mshr_miss_latency::total  15364726500                       # number of demand (read+write) MSHR miss cycles
system.cpu.dcache.overall_mshr_miss_latency::.cpu.data  15364726500                       # number of overall MSHR miss cycles
system.cpu.dcache.overall_mshr_miss_latency::total  15364726500                       # number of overall MSHR miss cycles
system.cpu.dcache.demand_mshr_miss_rate::.cpu.data     0.005245                       # mshr miss rate for demand accesses
system.cpu.dcache.demand_mshr_miss_rate::total     0.005245                       # mshr miss rate for demand accesses
system.cpu.dcache.overall_mshr_miss_rate::.cpu.data     0.005245                       # mshr miss rate for overall accesses
system.cpu.dcache.overall_mshr_miss_rate::total     0.005245                       # mshr miss rate for overall accesses
system.cpu.dcache.demand_avg_mshr_miss_latency::.cpu.data 81082.062418                       # average overall mshr miss latency
system.cpu.dcache.demand_avg_mshr_miss_latency::total 81082.062418                       # average overall mshr miss latency
system.cpu.dcache.overall_avg_mshr_miss_latency::.cpu.data 81082.062418                       # average overall mshr miss latency
system.cpu.dcache.overall_avg_mshr_miss_latency::total 81082.062418                       # average overall mshr miss latency
system.cpu.dcache.replacements                 185400                       # number of replacements
system.cpu.dcache.ReadReq_hits::.cpu.data     25995224                       # number of ReadReq hits
system.cpu.dcache.ReadReq_hits::total        25995224                       # number of ReadReq hits
system.cpu.dcache.ReadReq_misses::.cpu.data        78647                       # number of ReadReq misses
system.cpu.dcache.ReadReq_misses::total         78647                       # number of ReadReq misses
system.cpu.dcache.ReadReq_miss_latency::.cpu.data   6890066500                       # number of ReadReq miss cycles
system.cpu.dcache.ReadReq_miss_latency::total   6890066500                       # number of ReadReq miss cycles
system.cpu.dcache.ReadReq_accesses::.cpu.data     26073871                       # number of ReadReq accesses(hits+misses)
system.cpu.dcache.ReadReq_accesses::total     26073871                       # number of ReadReq accesses(hits+misses)
system.cpu.dcache.ReadReq_miss_rate::.cpu.data     0.003016                       # miss rate for ReadReq accesses
system.cpu.dcache.ReadReq_miss_rate::total     0.003016                       # miss rate for ReadReq accesses
system.cpu.dcache.ReadReq_avg_miss_latency::.cpu.data 87607.492975                       # average ReadReq miss latency
system.cpu.dcache.ReadReq_avg_miss_latency::total 87607.492975                       # average ReadReq miss latency
system.cpu.dcache.ReadReq_mshr_misses::.cpu.data        78647                       # number of ReadReq MSHR misses
system.cpu.dcache.ReadReq_mshr_misses::total        78647                       # number of ReadReq MSHR misses
system.cpu.dcache.ReadReq_mshr_miss_latency::.cpu.data   6811419500                       # number of ReadReq MSHR miss cycles
system.cpu.dcache.ReadReq_mshr_miss_latency::total   6811419500                       # number of ReadReq MSHR miss cycles
system.cpu.dcache.ReadReq_mshr_miss_rate::.cpu.data     0.003016                       # mshr miss rate for ReadReq accesses
system.cpu.dcache.ReadReq_mshr_miss_rate::total     0.003016                       # mshr miss rate for ReadReq accesses
system.cpu.dcache.ReadReq_avg_mshr_miss_latency::.cpu.data 86607.492975                       # average ReadReq mshr miss latency
system.cpu.dcache.ReadReq_avg_mshr_miss_latency::total 86607.492975                       # average ReadReq mshr miss latency
system.cpu.dcache.WriteReq_hits::.cpu.data      9946754                       # number of WriteReq hits
system.cpu.dcache.WriteReq_hits::total        9946754                       # number of WriteReq hits
system.cpu.dcache.WriteReq_misses::.cpu.data       110849                       # number of WriteReq misses
system.cpu.dcache.WriteReq_misses::total       110849                       # number of WriteReq misses
system.cpu.dcache.WriteReq_miss_latency::.cpu.data   8664156000                       # number of WriteReq miss cycles
system.cpu.dcache.WriteReq_miss_latency::total   8664156000                       # number of WriteReq miss cycles
system.cpu.dcache.WriteReq_accesses::.cpu.data     10057603                       # number of WriteReq accesses(hits+misses)
system.cpu.dcache.WriteReq_accesses::total     10057603                       # number of WriteReq accesses(hits+misses)
system.cpu.dcache.WriteReq_miss_rate::.cpu.data     0.011021                       # miss rate for WriteReq accesses
system.cpu.dcache.WriteReq_miss_rate::total     0.011021                       # miss rate for WriteReq accesses
system.cpu.dcache.WriteReq_avg_miss_latency::.cpu.data 78161.787657                       # average WriteReq miss latency
system.cpu.dcache.WriteReq_avg_miss_latency::total 78161.787657                       # average WriteReq miss latency
system.cpu.dcache.WriteReq_mshr_misses::.cpu.data       110849                       # number of WriteReq MSHR misses
system.cpu.dcache.WriteReq_mshr_misses::total       110849                       # number of WriteReq MSHR misses
system.cpu.dcache.WriteReq_mshr_miss_latency::.cpu.data   8553307000                       # number of WriteReq MSHR miss cycles
system.cpu.dcache.WriteReq_mshr_miss_latency::total   8553307000                       # number of WriteReq MSHR miss cycles
system.cpu.dcache.WriteReq_mshr_miss_rate::.cpu.data     0.011021                       # mshr miss rate for WriteReq accesses
system.cpu.dcache.WriteReq_mshr_miss_rate::total     0.011021                       # mshr miss rate for WriteReq accesses
system.cpu.dcache.WriteReq_avg_mshr_miss_latency::.cpu.data 77161.787657                       # average WriteReq mshr miss latency
system.cpu.dcache.WriteReq_avg_mshr_miss_latency::total 77161.787657                       # average WriteReq mshr miss latency
system.cpu.dcache.power_state.pwrStateResidencyTicks::UNDEFINED 137356953500                       # Cumulative time (in ticks) in various power states
system.cpu.dcache.tags.tagsinuse          4085.151492                       # Cycle average of tags in use
system.cpu.dcache.tags.total_refs            36131474                       # Total number of references to valid blocks.
system.cpu.dcache.tags.sampled_refs            189496                       # Sample count of references to valid blocks.
system.cpu.dcache.tags.avg_refs            190.671434                       # Average number of references to valid blocks.
system.cpu.dcache.tags.warmup_cycle            174500                       # Cycle when the warmup percentage was hit.
system.cpu.dcache.tags.occ_blocks::.cpu.data  4085.151492                       # Average occupied blocks per requestor
system.cpu.dcache.tags.occ_percent::.cpu.data     0.997351                       # Average percentage of cache occupancy
system.cpu.dcache.tags.occ_percent::total     0.997351                       # Average percentage of cache occupancy
system.cpu.dcache.tags.occ_task_id_blocks::1024         4096                       # Occupied blocks per task id
system.cpu.dcache.tags.age_task_id_blocks_1024::0           35                       # Occupied blocks per task id
system.cpu.dcache.tags.age_task_id_blocks_1024::1          416                       # Occupied blocks per task id
system.cpu.dcache.tags.age_task_id_blocks_1024::2         3642                       # Occupied blocks per task id
system.cpu.dcache.tags.age_task_id_blocks_1024::3            3                       # Occupied blocks per task id
system.cpu.dcache.tags.occ_task_id_percent::1024            1                       # Percentage of cache occupancy per task id
system.cpu.dcache.tags.tag_accesses         289241288                       # Number of tag accesses
system.cpu.dcache.tags.data_accesses        289241288                       # Number of data accesses
system.cpu.dcache.tags.power_state.pwrStateResidencyTicks::UNDEFINED 137356953500                       # Cumulative time (in ticks) in various power states
system.cpu.dtb.rdAccesses                    26074093                       # TLB accesses on read requests
system.cpu.dtb.wrAccesses                    10058351                       # TLB accesses on write requests
system.cpu.dtb.rdMisses                          1987                       # TLB misses on read requests
system.cpu.dtb.wrMisses                          1560                       # TLB misses on write requests
system.cpu.dtb.walker.power_state.pwrStateResidencyTicks::UNDEFINED 137356953500                       # Cumulative time (in ticks) in various power states
system.cpu.dtb_walker_cache.blocked_cycles::no_mshrs            0                       # number of cycles access was blocked
system.cpu.dtb_walker_cache.blocked_cycles::no_targets            0                       # number of cycles access was blocked
system.cpu.dtb_walker_cache.blocked::no_mshrs            0                       # number of cycles access was blocked
system.cpu.dtb_walker_cache.blocked::no_targets            0                       # number of cycles access was blocked
system.cpu.dtb_walker_cache.avg_blocked_cycles::no_mshrs          nan                       # average number of cycles each access was blocked
system.cpu.dtb_walker_cache.avg_blocked_cycles::no_targets          nan                       # average number of cycles each access was blocked
system.cpu.dtb_walker_cache.replacements            0                       # number of replacements
system.cpu.dtb_walker_cache.power_state.pwrStateResidencyTicks::UNDEFINED 137356953500                       # Cumulative time (in ticks) in various power states
system.cpu.dtb_walker_cache.tags.tagsinuse            0                       # Cycle average of tags in use
system.cpu.dtb_walker_cache.tags.total_refs            0                       # Total number of references to valid blocks.
system.cpu.dtb_walker_cache.tags.sampled_refs            0                       # Sample count of references to valid blocks.
system.cpu.dtb_walker_cache.tags.avg_refs          nan                       # Average number of references to valid blocks.
system.cpu.dtb_walker_cache.tags.warmup_cycle            0                       # Cycle when the warmup percentage was hit.
system.cpu.dtb_walker_cache.tags.tag_accesses            0                       # Number of tag accesses
system.cpu.dtb_walker_cache.tags.data_accesses            0                       # Number of data accesses
system.cpu.dtb_walker_cache.tags.power_state.pwrStateResidencyTicks::UNDEFINED 137356953500                       # Cumulative time (in ticks) in various power states
system.cpu.icache.demand_hits::.cpu.inst     85584520                       # number of demand (read+write) hits
system.cpu.icache.demand_hits::total         85584520                       # number of demand (read+write) hits
system.cpu.icache.overall_hits::.cpu.inst     85584520                       # number of overall hits
system.cpu.icache.overall_hits::total        85584520                       # number of overall hits
system.cpu.icache.demand_misses::.cpu.inst         3974                       # number of demand (read+write) misses
system.cpu.icache.demand_misses::total           3974                       # number of demand (read+write) misses
system.cpu.icache.overall_misses::.cpu.inst         3974                       # number of overall misses
system.cpu.icache.overall_misses::total          3974                       # number of overall misses
system.cpu.icache.demand_miss_latency::.cpu.inst    311202000                       # number of demand (read+write) miss cycles
system.cpu.icache.demand_miss_latency::total    311202000                       # number of demand (read+write) miss cycles
system.cpu.icache.overall_miss_latency::.cpu.inst    311202000                       # number of overall miss cycles
system.cpu.icache.overall_miss_latency::total    311202000                       # number of overall miss cycles
system.cpu.icache.demand_accesses::.cpu.inst     85588494                       # number of demand (read+write) accesses
system.cpu.icache.demand_accesses::total     85588494                       # number of demand (read+write) accesses
system.cpu.icache.overall_accesses::.cpu.inst     85588494                       # number of overall (read+write) accesses
system.cpu.icache.overall_accesses::total     85588494                       # number of overall (read+write) accesses
system.cpu.icache.demand_miss_rate::.cpu.inst     0.000046                       # miss rate for demand accesses
system.cpu.icache.demand_miss_rate::total     0.000046                       # miss rate for demand accesses
system.cpu.icache.overall_miss_rate::.cpu.inst     0.000046                       # miss rate for overall accesses
system.cpu.icache.overall_miss_rate::total     0.000046                       # miss rate for overall accesses
system.cpu.icache.demand_avg_miss_latency::.cpu.inst 78309.511827                       # average overall miss latency
system.cpu.icache.demand_avg_miss_latency::total 78309.511827                       # average overall miss latency
system.cpu.icache.overall_avg_miss_latency::.cpu.inst 78309.511827                       # average overall miss latency
system.cpu.icache.overall_avg_miss_latency::total 78309.511827                       # average overall miss latency
system.cpu.icache.blocked_cycles::no_mshrs            0                       # number of cycles access was blocked
system.cpu.icache.blocked_cycles::no_targets            0                       # number of cycles access was blocked
system.cpu.icache.blocked::no_mshrs                 0                       # number of cycles access was blocked
system.cpu.icache.blocked::no_targets               0                       # number of cycles access was blocked
system.cpu.icache.avg_blocked_cycles::no_mshrs          nan                       # average number of cycles each access was blocked
system.cpu.icache.avg_blocked_cycles::no_targets          nan                       # average number of cycles each access was blocked
system.cpu.icache.writebacks::.writebacks          869                       # number of writebacks
system.cpu.icache.writebacks::total               869                       # number of writebacks
system.cpu.icache.demand_mshr_misses::.cpu.inst         3974                       # number of demand (read+write) MSHR misses
system.cpu.icache.demand_mshr_misses::total         3974                       # number of demand (read+write) MSHR misses
system.cpu.icache.overall_mshr_misses::.cpu.inst         3974                       # number of overall MSHR misses
system.cpu.icache.overall_mshr_misses::total         3974                       # number of overall MSHR misses
system.cpu.icache.demand_mshr_miss_latency::.cpu.inst    307228000                       # number of demand (read+write) MSHR miss cycles
system.cpu.icache.demand_mshr_miss_latency::total    307228000                       # number of demand (read+write) MSHR miss cycles
system.cpu.icache.overall_mshr_miss_latency::.cpu.inst    307228000                       # number of overall MSHR miss cycles
system.cpu.icache.overall_mshr_miss_latency::total    307228000                       # number of overall MSHR miss cycles
system.cpu.icache.demand_mshr_miss_rate::.cpu.inst     0.000046                       # mshr miss rate for demand accesses
system.cpu.icache.demand_mshr_miss_rate::total     0.000046                       # mshr miss rate for demand accesses
system.cpu.icache.overall_mshr_miss_rate::.cpu.inst     0.000046                       # mshr miss rate for overall accesses
system.cpu.icache.overall_mshr_miss_rate::total     0.000046                       # mshr miss rate for overall accesses
system.cpu.icache.demand_avg_mshr_miss_latency::.cpu.inst 77309.511827                       # average overall mshr miss latency
system.cpu.icache.demand_avg_mshr_miss_latency::total 77309.511827                       # average overall mshr miss latency
system.cpu.icache.overall_avg_mshr_miss_latency::.cpu.inst 77309.511827                       # average overall mshr miss latency
system.cpu.icache.overall_avg_mshr_miss_latency::total 77309.511827                       # average overall mshr miss latency
system.cpu.icache.replacements                    869                       # number of replacements
system.cpu.icache.ReadReq_hits::.cpu.inst     85584520                       # number of ReadReq hits
system.cpu.icache.ReadReq_hits::total        85584520                       # number of ReadReq hits
system.cpu.icache.ReadReq_misses::.cpu.inst         3974                       # number of ReadReq misses
system.cpu.icache.ReadReq_misses::total          3974                       # number of ReadReq misses
system.cpu.icache.ReadReq_miss_latency::.cpu.inst    311202000                       # number of ReadReq miss cycles
system.cpu.icache.ReadReq_miss_latency::total    311202000                       # number of ReadReq miss cycles
system.cpu.icache.ReadReq_accesses::.cpu.inst     85588494                       # number of ReadReq accesses(hits+misses)
system.cpu.icache.ReadReq_accesses::total     85588494                       # number of ReadReq accesses(hits+misses)
system.cpu.icache.ReadReq_miss_rate::.cpu.inst     0.000046                       # miss rate for ReadReq accesses
system.cpu.icache.ReadReq_miss_rate::total     0.000046                       # miss rate for ReadReq accesses
system.cpu.icache.ReadReq_avg_miss_latency::.cpu.inst 78309.511827                       # average ReadReq miss latency
system.cpu.icache.ReadReq_avg_miss_latency::total 78309.511827                       # average ReadReq miss latency
system.cpu.icache.ReadReq_mshr_misses::.cpu.inst         3974                       # number of ReadReq MSHR misses
system.cpu.icache.ReadReq_mshr_misses::total         3974                       # number of ReadReq MSHR misses
system.cpu.icache.ReadReq_mshr_miss_latency::.cpu.inst    307228000                       # number of ReadReq MSHR miss cycles
system.cpu.icache.ReadReq_mshr_miss_latency::total    307228000                       # number of ReadReq MSHR miss cycles
system.cpu.icache.ReadReq_mshr_miss_rate::.cpu.inst     0.000046                       # mshr miss rate for ReadReq accesses
system.cpu.icache.ReadReq_mshr_miss_rate::total     0.000046                       # mshr miss rate for ReadReq accesses
system.cpu.icache.ReadReq_avg_mshr_miss_latency::.cpu.inst 77309.511827                       # average ReadReq mshr miss latency
system.cpu.icache.ReadReq_avg_mshr_miss_latency::total 77309.511827                       # average ReadReq mshr miss latency
system.cpu.icache.power_state.pwrStateResidencyTicks::UNDEFINED 137356953500                       # Cumulative time (in ticks) in various power states
system.cpu.icache.tags.tagsinuse          2681.744502                       # Cycle average of tags in use
system.cpu.icache.tags.total_refs            85588494                       # Total number of references to valid blocks.
system.cpu.icache.tags.sampled_refs              3974                       # Sample count of references to valid blocks.
system.cpu.icache.tags.avg_refs          21537.114746                       # Average number of references to valid blocks.
system.cpu.icache.tags.warmup_cycle             87500                       # Cycle when the warmup percentage was hit.
system.cpu.icache.tags.occ_blocks::.cpu.inst  2681.744502                       # Average occupied blocks per requestor
system.cpu.icache.tags.occ_percent::.cpu.inst     0.654723                       # Average percentage of cache occupancy
system.cpu.icache.tags.occ_percent::total     0.654723                       # Average percentage of cache occupancy
system.cpu.icache.tags.occ_task_id_blocks::1024         3105                       # Occupied blocks per task id
system.cpu.icache.tags.age_task_id_blocks_1024::0           59                       # Occupied blocks per task id
system.cpu.icache.tags.age_task_id_blocks_1024::1          363                       # Occupied blocks per task id
system.cpu.icache.tags.age_task_id_blocks_1024::2           26                       # Occupied blocks per task id
system.cpu.icache.tags.age_task_id_blocks_1024::3          212                       # Occupied blocks per task id
system.cpu.icache.tags.age_task_id_blocks_1024::4         2445                       # Occupied blocks per task id
system.cpu.icache.tags.occ_task_id_percent::1024     0.758057                       # Percentage of cache occupancy per task id
system.cpu.icache.tags.tag_accesses         171180962                       # Number of tag accesses
system.cpu.icache.tags.data_accesses        171180962                       # Number of data accesses
system.cpu.icache.tags.power_state.pwrStateResidencyTicks::UNDEFINED 137356953500                       # Cumulative time (in ticks) in various power states
system.cpu.interrupts.clk_domain.clock           8000                       # Clock period in ticks
system.cpu.itb.rdAccesses                           0                       # TLB accesses on read requests
system.cpu.itb.wrAccesses                    85588623                       # TLB accesses on write requests
system.cpu.itb.rdMisses                             0                       # TLB misses on read requests
system.cpu.itb.wrMisses                           542                       # TLB misses on write requests
system.cpu.itb.walker.power_state.pwrStateResidencyTicks::UNDEFINED 137356953500                       # Cumulative time (in ticks) in various power states
system.cpu.itb_walker_cache.blocked_cycles::no_mshrs            0                       # number of cycles access was blocked
system.cpu.itb_walker_cache.blocked_cycles::no_targets            0                       # number of cycles access was blocked
system.cpu.itb_walker_cache.blocked::no_mshrs            0                       # number of cycles access was blocked
system.cpu.itb_walker_cache.blocked::no_targets            0                       # number of cycles access was blocked
system.cpu.itb_walker_cache.avg_blocked_cycles::no_mshrs          nan                       # average number of cycles each access was blocked
system.cpu.itb_walker_cache.avg_blocked_cycles::no_targets          nan                       # average number of cycles each access was blocked
system.cpu.itb_walker_cache.replacements            0                       # number of replacements
system.cpu.itb_walker_cache.power_state.pwrStateResidencyTicks::UNDEFINED 137356953500                       # Cumulative time (in ticks) in various power states
system.cpu.itb_walker_cache.tags.tagsinuse            0                       # Cycle average of tags in use
system.cpu.itb_walker_cache.tags.total_refs            0                       # Total number of references to valid blocks.
system.cpu.itb_walker_cache.tags.sampled_refs            0                       # Sample count of references to valid blocks.
system.cpu.itb_walker_cache.tags.avg_refs          nan                       # Average number of references to valid blocks.
system.cpu.itb_walker_cache.tags.warmup_cycle            0                       # Cycle when the warmup percentage was hit.
system.cpu.itb_walker_cache.tags.tag_accesses            0                       # Number of tag accesses
system.cpu.itb_walker_cache.tags.data_accesses            0                       # Number of data accesses
system.cpu.itb_walker_cache.tags.power_state.pwrStateResidencyTicks::UNDEFINED 137356953500                       # Cumulative time (in ticks) in various power states
system.cpu.power_state.pwrStateResidencyTicks::ON 137356953500                       # Cumulative time (in ticks) in various power states
system.cpu.thread_0.numInsts                        0                       # Number of Instructions committed
system.cpu.thread_0.numOps                          0                       # Number of Ops committed
system.cpu.thread_0.numMemRefs                      0                       # Number of Memory References
system.cpu_clk_domain.clock                       500                       # Clock period in ticks
system.cpu_voltage_domain.voltage                   1                       # Voltage in Volts
system.l2.demand_hits::.cpu.inst                   21                       # number of demand (read+write) hits
system.l2.demand_hits::.cpu.data                 4362                       # number of demand (read+write) hits
system.l2.demand_hits::total                     4383                       # number of demand (read+write) hits
system.l2.overall_hits::.cpu.inst                  21                       # number of overall hits
system.l2.overall_hits::.cpu.data                4362                       # number of overall hits
system.l2.overall_hits::total                    4383                       # number of overall hits
system.l2.demand_misses::.cpu.inst               3953                       # number of demand (read+write) misses
system.l2.demand_misses::.cpu.data             185134                       # number of demand (read+write) misses
system.l2.demand_misses::total                 189087                       # number of demand (read+write) misses
system.l2.overall_misses::.cpu.inst              3953                       # number of overall misses
system.l2.overall_misses::.cpu.data            185134                       # number of overall misses
system.l2.overall_misses::total                189087                       # number of overall misses
system.l2.demand_miss_latency::.cpu.inst    301046500                       # number of demand (read+write) miss cycles
system.l2.demand_miss_latency::.cpu.data  15034670500                       # number of demand (read+write) miss cycles
system.l2.demand_miss_latency::total      15335717000                       # number of demand (read+write) miss cycles
system.l2.overall_miss_latency::.cpu.inst    301046500                       # number of overall miss cycles
system.l2.overall_miss_latency::.cpu.data  15034670500                       # number of overall miss cycles
system.l2.overall_miss_latency::total     15335717000                       # number of overall miss cycles
system.l2.demand_accesses::.cpu.inst             3974                       # number of demand (read+write) accesses
system.l2.demand_accesses::.cpu.data           189496                       # number of demand (read+write) accesses
system.l2.demand_accesses::total               193470                       # number of demand (read+write) accesses
system.l2.overall_accesses::.cpu.inst            3974                       # number of overall (read+write) accesses
system.l2.overall_accesses::.cpu.data          189496                       # number of overall (read+write) accesses
system.l2.overall_accesses::total              193470                       # number of overall (read+write) accesses
system.l2.demand_miss_rate::.cpu.inst        0.994716                       # miss rate for demand accesses
system.l2.demand_miss_rate::.cpu.data        0.976981                       # miss rate for demand accesses
system.l2.demand_miss_rate::total            0.977345                       # miss rate for demand accesses
system.l2.overall_miss_rate::.cpu.inst       0.994716                       # miss rate for overall accesses
system.l2.overall_miss_rate::.cpu.data       0.976981                       # miss rate for overall accesses
system.l2.overall_miss_rate::total           0.977345                       # miss rate for overall accesses
system.l2.demand_avg_miss_latency::.cpu.inst 76156.463445                       # average overall miss latency
system.l2.demand_avg_miss_latency::.cpu.data 81209.667052                       # average overall miss latency
system.l2.demand_avg_miss_latency::total 81104.026189                       # average overall miss latency
system.l2.overall_avg_miss_latency::.cpu.inst 76156.463445                       # average overall miss latency
system.l2.overall_avg_miss_latency::.cpu.data 81209.667052                       # average overall miss latency
system.l2.overall_avg_miss_latency::total 81104.026189                       # average overall miss latency
system.l2.blocked_cycles::no_mshrs                  0                       # number of cycles access was blocked
system.l2.blocked_cycles::no_targets                0                       # number of cycles access was blocked
system.l2.blocked::no_mshrs                         0                       # number of cycles access was blocked
system.l2.blocked::no_targets                       0                       # number of cycles access was blocked
system.l2.avg_blocked_cycles::no_mshrs            nan                       # average number of cycles each access was blocked
system.l2.avg_blocked_cycles::no_targets          nan                       # average number of cycles each access was blocked
system.l2.writebacks::.writebacks              146085                       # number of writebacks
system.l2.writebacks::total                    146085                       # number of writebacks
system.l2.demand_mshr_misses::.cpu.inst          3953                       # number of demand (read+write) MSHR misses
system.l2.demand_mshr_misses::.cpu.data        185134                       # number of demand (read+write) MSHR misses
system.l2.demand_mshr_misses::total            189087                       # number of demand (read+write) MSHR misses
system.l2.overall_mshr_misses::.cpu.inst         3953                       # number of overall MSHR misses
system.l2.overall_mshr_misses::.cpu.data       185134                       # number of overall MSHR misses
system.l2.overall_mshr_misses::total           189087                       # number of overall MSHR misses
system.l2.demand_mshr_miss_latency::.cpu.inst    261516500                       # number of demand (read+write) MSHR miss cycles
system.l2.demand_mshr_miss_latency::.cpu.data  13183330500                       # number of demand (read+write) MSHR miss cycles
system.l2.demand_mshr_miss_latency::total  13444847000                       # number of demand (read+write) MSHR miss cycles
system.l2.overall_mshr_miss_latency::.cpu.inst    261516500                       # number of overall MSHR miss cycles
system.l2.overall_mshr_miss_latency::.cpu.data  13183330500                       # number of overall MSHR miss cycles
system.l2.overall_mshr_miss_latency::total  13444847000                       # number of overall MSHR miss cycles
system.l2.demand_mshr_miss_rate::.cpu.inst     0.994716                       # mshr miss rate for demand accesses
system.l2.demand_mshr_miss_rate::.cpu.data     0.976981                       # mshr miss rate for demand accesses
system.l2.demand_mshr_miss_rate::total       0.977345                       # mshr miss rate for demand accesses
system.l2.overall_mshr_miss_rate::.cpu.inst     0.994716                       # mshr miss rate for overall accesses
system.l2.overall_mshr_miss_rate::.cpu.data     0.976981                       # mshr miss rate for overall accesses
system.l2.overall_mshr_miss_rate::total      0.977345                       # mshr miss rate for overall accesses
system.l2.demand_avg_mshr_miss_latency::.cpu.inst 66156.463445                       # average overall mshr miss latency
system.l2.demand_avg_mshr_miss_latency::.cpu.data 71209.667052                       # average overall mshr miss latency
system.l2.demand_avg_mshr_miss_latency::total 71104.026189                       # average overall mshr miss latency
system.l2.overall_avg_mshr_miss_latency::.cpu.inst 66156.463445                       # average overall mshr miss latency
system.l2.overall_avg_mshr_miss_latency::.cpu.data 71209.667052                       # average overall mshr miss latency
system.l2.overall_avg_mshr_miss_latency::total 71104.026189                       # average overall mshr miss latency
system.l2.replacements                         329407                       # number of replacements
system.l2.WritebackDirty_hits::.writebacks       152290                       # number of WritebackDirty hits
system.l2.WritebackDirty_hits::total           152290                       # number of WritebackDirty hits
system.l2.WritebackDirty_accesses::.writebacks       152290                       # number of WritebackDirty accesses(hits+misses)
system.l2.WritebackDirty_accesses::total       152290                       # number of WritebackDirty accesses(hits+misses)
system.l2.WritebackClean_hits::.writebacks          869                       # number of WritebackClean hits
system.l2.WritebackClean_hits::total              869                       # number of WritebackClean hits
system.l2.WritebackClean_accesses::.writebacks          869                       # number of WritebackClean accesses(hits+misses)
system.l2.WritebackClean_accesses::total          869                       # number of WritebackClean accesses(hits+misses)
system.l2.CleanEvict_mshr_misses::.writebacks        27714                       # number of CleanEvict MSHR misses
system.l2.CleanEvict_mshr_misses::total         27714                       # number of CleanEvict MSHR misses
system.l2.CleanEvict_mshr_miss_rate::.writebacks          inf                       # mshr miss rate for CleanEvict accesses
system.l2.CleanEvict_mshr_miss_rate::total          inf                       # mshr miss rate for CleanEvict accesses
system.l2.ReadExReq_hits::.cpu.data               268                       # number of ReadExReq hits
system.l2.ReadExReq_hits::total                   268                       # number of ReadExReq hits
system.l2.ReadExReq_misses::.cpu.data          110581                       # number of ReadExReq misses
system.l2.ReadExReq_misses::total              110581                       # number of ReadExReq misses
system.l2.ReadExReq_miss_latency::.cpu.data   8384218500                       # number of ReadExReq miss cycles
system.l2.ReadExReq_miss_latency::total    8384218500                       # number of ReadExReq miss cycles
system.l2.ReadExReq_accesses::.cpu.data        110849                       # number of ReadExReq accesses(hits+misses)
system.l2.ReadExReq_accesses::total            110849                       # number of ReadExReq accesses(hits+misses)
system.l2.ReadExReq_miss_rate::.cpu.data     0.997582                       # miss rate for ReadExReq accesses
system.l2.ReadExReq_miss_rate::total         0.997582                       # miss rate for ReadExReq accesses
system.l2.ReadExReq_avg_miss_latency::.cpu.data 75819.702300                       # average ReadExReq miss latency
system.l2.ReadExReq_avg_miss_latency::total 75819.702300                       # average ReadExReq miss latency
system.l2.ReadExReq_mshr_misses::.cpu.data       110581                       # number of ReadExReq MSHR misses
system.l2.ReadExReq_mshr_misses::total         110581                       # number of ReadExReq MSHR misses
system.l2.ReadExReq_mshr_miss_latency::.cpu.data   7278408500                       # number of ReadExReq MSHR miss cycles
system.l2.ReadExReq_mshr_miss_latency::total   7278408500                       # number of ReadExReq MSHR miss cycles
system.l2.ReadExReq_mshr_miss_rate::.cpu.data     0.997582                       # mshr miss rate for ReadExReq accesses
system.l2.ReadExReq_mshr_miss_rate::total     0.997582                       # mshr miss rate for ReadExReq accesses
system.l2.ReadExReq_avg_mshr_miss_latency::.cpu.data 65819.702300                       # average ReadExReq mshr miss latency
system.l2.ReadExReq_avg_mshr_miss_latency::total 65819.702300                       # average ReadExReq mshr miss latency
system.l2.ReadCleanReq_hits::.cpu.inst             21                       # number of ReadCleanReq hits
system.l2.ReadCleanReq_hits::total                 21                       # number of ReadCleanReq hits
system.l2.ReadCleanReq_misses::.cpu.inst         3953                       # number of ReadCleanReq misses
system.l2.ReadCleanReq_misses::total             3953                       # number of ReadCleanReq misses
system.l2.ReadCleanReq_miss_latency::.cpu.inst    301046500                       # number of ReadCleanReq miss cycles
system.l2.ReadCleanReq_miss_latency::total    301046500                       # number of ReadCleanReq miss cycles
system.l2.ReadCleanReq_accesses::.cpu.inst         3974                       # number of ReadCleanReq accesses(hits+misses)
system.l2.ReadCleanReq_accesses::total           3974                       # number of ReadCleanReq accesses(hits+misses)
system.l2.ReadCleanReq_miss_rate::.cpu.inst     0.994716                       # miss rate for ReadCleanReq accesses
system.l2.ReadCleanReq_miss_rate::total      0.994716                       # miss rate for ReadCleanReq accesses
system.l2.ReadCleanReq_avg_miss_latency::.cpu.inst 76156.463445                       # average ReadCleanReq miss latency
system.l2.ReadCleanReq_avg_miss_latency::total 76156.463445                       # average ReadCleanReq miss latency
system.l2.ReadCleanReq_mshr_misses::.cpu.inst         3953                       # number of ReadCleanReq MSHR misses
system.l2.ReadCleanReq_mshr_misses::total         3953                       # number of ReadCleanReq MSHR misses
system.l2.ReadCleanReq_mshr_miss_latency::.cpu.inst    261516500                       # number of ReadCleanReq MSHR miss cycles
system.l2.ReadCleanReq_mshr_miss_latency::total    261516500                       # number of ReadCleanReq MSHR miss cycles
system.l2.ReadCleanReq_mshr_miss_rate::.cpu.inst     0.994716                       # mshr miss rate for ReadCleanReq accesses
system.l2.ReadCleanReq_mshr_miss_rate::total     0.994716                       # mshr miss rate for ReadCleanReq accesses
system.l2.ReadCleanReq_avg_mshr_miss_latency::.cpu.inst 66156.463445                       # average ReadCleanReq mshr miss latency
system.l2.ReadCleanReq_avg_mshr_miss_latency::total 66156.463445                       # average ReadCleanReq mshr miss latency
system.l2.ReadSharedReq_hits::.cpu.data          4094                       # number of ReadSharedReq hits
system.l2.ReadSharedReq_hits::total              4094                       # number of ReadSharedReq hits
system.l2.ReadSharedReq_misses::.cpu.data        74553                       # number of ReadSharedReq misses
system.l2.ReadSharedReq_misses::total           74553                       # number of ReadSharedReq misses
system.l2.ReadSharedReq_miss_latency::.cpu.data   6650452000                       # number of ReadSharedReq miss cycles
system.l2.ReadSharedReq_miss_latency::total   6650452000                       # number of ReadSharedReq miss cycles
system.l2.ReadSharedReq_accesses::.cpu.data        78647                       # number of ReadSharedReq accesses(hits+misses)
system.l2.ReadSharedReq_accesses::total         78647                       # number of ReadSharedReq accesses(hits+misses)
system.l2.ReadSharedReq_miss_rate::.cpu.data     0.947945                       # miss rate for ReadSharedReq accesses
system.l2.ReadSharedReq_miss_rate::total     0.947945                       # miss rate for ReadSharedReq accesses
system.l2.ReadSharedReq_avg_miss_latency::.cpu.data 89204.351267                       # average ReadSharedReq miss latency
system.l2.ReadSharedReq_avg_miss_latency::total 89204.351267                       # average ReadSharedReq miss latency
system.l2.ReadSharedReq_mshr_misses::.cpu.data        74553                       # number of ReadSharedReq MSHR misses
system.l2.ReadSharedReq_mshr_misses::total        74553                       # number of ReadSharedReq MSHR misses
system.l2.ReadSharedReq_mshr_miss_latency::.cpu.data   5904922000                       # number of ReadSharedReq MSHR miss cycles
system.l2.ReadSharedReq_mshr_miss_latency::total   5904922000                       # number of ReadSharedReq MSHR miss cycles
system.l2.ReadSharedReq_mshr_miss_rate::.cpu.data     0.947945                       # mshr miss rate for ReadSharedReq accesses
system.l2.ReadSharedReq_mshr_miss_rate::total     0.947945                       # mshr miss rate for ReadSharedReq accesses
system.l2.ReadSharedReq_avg_mshr_miss_latency::.cpu.data 79204.351267                       # average ReadSharedReq mshr miss latency
system.l2.ReadSharedReq_avg_mshr_miss_latency::total 79204.351267                       # average ReadSharedReq mshr miss latency
system.l2.power_state.pwrStateResidencyTicks::UNDEFINED 137356953500                       # Cumulative time (in ticks) in various power states
system.l2.tags.tagsinuse                  4085.908854                       # Cycle average of tags in use
system.l2.tags.total_refs                      352025                       # Total number of references to valid blocks.
system.l2.tags.sampled_refs                    333503                       # Sample count of references to valid blocks.
system.l2.tags.avg_refs                      1.055538                       # Average number of references to valid blocks.
system.l2.tags.warmup_cycle                     77000                       # Cycle when the warmup percentage was hit.
system.l2.tags.occ_blocks::.writebacks    1794.473967                       # Average occupied blocks per requestor
system.l2.tags.occ_blocks::.cpu.inst        29.792477                       # Average occupied blocks per requestor
system.l2.tags.occ_blocks::.cpu.data      2261.642410                       # Average occupied blocks per requestor
system.l2.tags.occ_percent::.writebacks      0.438104                       # Average percentage of cache occupancy
system.l2.tags.occ_percent::.cpu.inst        0.007274                       # Average percentage of cache occupancy
system.l2.tags.occ_percent::.cpu.data        0.552159                       # Average percentage of cache occupancy
system.l2.tags.occ_percent::total            0.997536                       # Average percentage of cache occupancy
system.l2.tags.occ_task_id_blocks::1024          4096                       # Occupied blocks per task id
system.l2.tags.age_task_id_blocks_1024::0          164                       # Occupied blocks per task id
system.l2.tags.age_task_id_blocks_1024::1         1194                       # Occupied blocks per task id
system.l2.tags.age_task_id_blocks_1024::2         2738                       # Occupied blocks per task id
system.l2.tags.occ_task_id_percent::1024            1                       # Percentage of cache occupancy per task id
system.l2.tags.tag_accesses                   1092981                       # Number of tag accesses
system.l2.tags.data_accesses                  1092981                       # Number of data accesses
system.l2.tags.power_state.pwrStateResidencyTicks::UNDEFINED 137356953500                       # Cumulative time (in ticks) in various power states
system.mem_ctrls.avgPriority_.writebacks::samples     77359.00                       # Average QoS priority value for accepted requests
system.mem_ctrls.avgPriority_.cpu.inst::samples      3953.00                       # Average QoS priority value for accepted requests
system.mem_ctrls.avgPriority_.cpu.data::samples    184277.00                       # Average QoS priority value for accepted requests
system.mem_ctrls.priorityMinLatency      0.000000018750                       # per QoS priority minimum request to response latency (s)
system.mem_ctrls.priorityMaxLatency      0.032553203000                       # per QoS priority maximum request to response latency (s)
system.mem_ctrls.numReadWriteTurnArounds         4358                       # Number of turnarounds from READ to WRITE
system.mem_ctrls.numWriteReadTurnArounds         4358                       # Number of turnarounds from WRITE to READ
system.mem_ctrls.numStayReadState              556575                       # Number of times bus staying in READ state
system.mem_ctrls.numStayWriteState              73033                       # Number of times bus staying in WRITE state
system.mem_ctrls.readReqs                      189087                       # Number of read requests accepted
system.mem_ctrls.writeReqs                     146085                       # Number of write requests accepted
system.mem_ctrls.readBursts                    189087                       # Number of controller read bursts, including those serviced by the write queue
system.mem_ctrls.writeBursts                   146085                       # Number of controller write bursts, including those merged in the write queue
system.mem_ctrls.servicedByWrQ                    857                       # Number of controller read bursts serviced by the write queue
system.mem_ctrls.mergedWrBursts                 68726                       # Number of controller write bursts merged with an existing one
system.mem_ctrls.neitherReadNorWriteReqs            0                       # Number of requests that are neither read nor write
system.mem_ctrls.avgRdQLen                       1.00                       # Average read queue length when enqueuing
system.mem_ctrls.avgWrQLen                      24.26                       # Average write queue length when enqueuing
system.mem_ctrls.numRdRetry                         0                       # Number of times read queue was full causing retry
system.mem_ctrls.numWrRetry                         0                       # Number of times write queue was full causing retry
system.mem_ctrls.readPktSize::0                     0                       # Read request sizes (log2)
system.mem_ctrls.readPktSize::1                     0                       # Read request sizes (log2)
system.mem_ctrls.readPktSize::2                     0                       # Read request sizes (log2)
system.mem_ctrls.readPktSize::3                     0                       # Read request sizes (log2)
system.mem_ctrls.readPktSize::4                     0                       # Read request sizes (log2)
system.mem_ctrls.readPktSize::5                189087                       # Read request sizes (log2)
system.mem_ctrls.writePktSize::0                    0                       # Write request sizes (log2)
system.mem_ctrls.writePktSize::1                    0                       # Write request sizes (log2)
system.mem_ctrls.writePktSize::2                    0                       # Write request sizes (log2)
system.mem_ctrls.writePktSize::3                    0                       # Write request sizes (log2)
system.mem_ctrls.writePktSize::4                    0                       # Write request sizes (log2)
system.mem_ctrls.writePktSize::5               146085                       # Write request sizes (log2)
system.mem_ctrls.rdQLenPdf::0                  188209                       # What read queue length does an incoming req see
system.mem_ctrls.rdQLenPdf::1                      21                       # What read queue length does an incoming req see
system.mem_ctrls.rdQLenPdf::2                       0                       # What read queue length does an incoming req see
system.mem_ctrls.rdQLenPdf::3                       0                       # What read queue length does an incoming req see
system.mem_ctrls.rdQLenPdf::4                       0                       # What read queue length does an incoming req see
system.mem_ctrls.rdQLenPdf::5                       0                       # What read queue length does an incoming req see
system.mem_ctrls.rdQLenPdf::6                       0                       # What read queue length does an incoming req see
system.mem_ctrls.rdQLenPdf::7                       0                       # What read queue length does an incoming req see
system.mem_ctrls.rdQLenPdf::8                       0                       # What read queue length does an incoming req see
system.mem_ctrls.rdQLenPdf::9                       0                       # What read queue length does an incoming req see
system.mem_ctrls.rdQLenPdf::10                      0                       # What read queue length does an incoming req see
system.mem_ctrls.rdQLenPdf::11                      0                       # What read queue length does an incoming req see
system.mem_ctrls.rdQLenPdf::12                      0                       # What read queue length does an incoming req see
system.mem_ctrls.rdQLenPdf::13                      0                       # What read queue length does an incoming req see
system.mem_ctrls.rdQLenPdf::14                      0                       # What read queue length does an incoming req see
system.mem_ctrls.rdQLenPdf::15                      0                       # What read queue length does an incoming req see
system.mem_ctrls.rdQLenPdf::16                      0                       # What read queue length does an incoming req see
system.mem_ctrls.rdQLenPdf::17                      0                       # What read queue length does an incoming req see
system.mem_ctrls.rdQLenPdf::18                      0                       # What read queue length does an incoming req see
system.mem_ctrls.rdQLenPdf::19                      0                       # What read queue length does an incoming req see
system.mem_ctrls.rdQLenPdf::20                      0                       # What read queue length does an incoming req see
system.mem_ctrls.rdQLenPdf::21                      0                       # What read queue length does an incoming req see
system.mem_ctrls.rdQLenPdf::22                      0                       # What read queue length does an incoming req see
system.mem_ctrls.rdQLenPdf::23                      0                       # What read queue length does an incoming req see
system.mem_ctrls.rdQLenPdf::24                      0                       # What read queue length does an incoming req see
system.mem_ctrls.rdQLenPdf::25                      0                       # What read queue length does an incoming req see
system.mem_ctrls.rdQLenPdf::26                      0                       # What read queue length does an incoming req see
system.mem_ctrls.rdQLenPdf::27                      0                       # What read queue length does an incoming req see
system.mem_ctrls.rdQLenPdf::28                      0                       # What read queue length does an incoming req see
system.mem_ctrls.rdQLenPdf::29                      0                       # What read queue length does an incoming req see
system.mem_ctrls.rdQLenPdf::30                      0                       # What read queue length does an incoming req see
system.mem_ctrls.rdQLenPdf::31                      0                       # What read queue length does an incoming req see
system.mem_ctrls.wrQLenPdf::0                       1                       # What write queue length does an incoming req see
system.mem_ctrls.wrQLenPdf::1                       1                       # What write queue length does an incoming req see
system.mem_ctrls.wrQLenPdf::2                       1                       # What write queue length does an incoming req see
system.mem_ctrls.wrQLenPdf::3                       1                       # What write queue length does an incoming req see
system.mem_ctrls.wrQLenPdf::4                       1                       # What write queue length does an incoming req see
system.mem_ctrls.wrQLenPdf::5                       1                       # What write queue length does an incoming req see
system.mem_ctrls.wrQLenPdf::6                       1                       # What write queue length does an incoming req see
system.mem_ctrls.wrQLenPdf::7                       1                       # What write queue length does an incoming req see
system.mem_ctrls.wrQLenPdf::8                       1                       # What write queue length does an incoming req see
system.mem_ctrls.wrQLenPdf::9                       1                       # What write queue length does an incoming req see
system.mem_ctrls.wrQLenPdf::10                      1                       # What write queue length does an incoming req see
system.mem_ctrls.wrQLenPdf::11                      1                       # What write queue length does an incoming req see
system.mem_ctrls.wrQLenPdf::12                      1                       # What write queue length does an incoming req see
system.mem_ctrls.wrQLenPdf::13                      1                       # What write queue length does an incoming req see
system.mem_ctrls.wrQLenPdf::14                      1                       # What write queue length does an incoming req see
system.mem_ctrls.wrQLenPdf::15                   3699                       # What write queue length does an incoming req see
system.mem_ctrls.wrQLenPdf::16                   3729                       # What write queue length does an incoming req see
system.mem_ctrls.wrQLenPdf::17                   4287                       # What write queue length does an incoming req see
system.mem_ctrls.wrQLenPdf::18                   4361                       # What write queue length does an incoming req see
system.mem_ctrls.wrQLenPdf::19                   4359                       # What write queue length does an incoming req see
system.mem_ctrls.wrQLenPdf::20                   4359                       # What write queue length does an incoming req see
system.mem_ctrls.wrQLenPdf::21                   4359                       # What write queue length does an incoming req see
system.mem_ctrls.wrQLenPdf::22                   4359                       # What write queue length does an incoming req see
system.mem_ctrls.wrQLenPdf::23                   4380                       # What write queue length does an incoming req see
system.mem_ctrls.wrQLenPdf::24                   4360                       # What write queue length does an incoming req see
system.mem_ctrls.wrQLenPdf::25                   4527                       # What write queue length does an incoming req see
system.mem_ctrls.wrQLenPdf::26                   4403                       # What write queue length does an incoming req see
system.mem_ctrls.wrQLenPdf::27                   4362                       # What write queue length does an incoming req see
system.mem_ctrls.wrQLenPdf::28                   4366                       # What write queue length does an incoming req see
system.mem_ctrls.wrQLenPdf::29                   4359                       # What write queue length does an incoming req see
system.mem_ctrls.wrQLenPdf::30                   4359                       # What write queue length does an incoming req see
system.mem_ctrls.wrQLenPdf::31                   4358                       # What write queue length does an incoming req see
system.mem_ctrls.wrQLenPdf::32                   4358                       # What write queue length does an incoming req see
system.mem_ctrls.wrQLenPdf::33                      0                       # What write queue length does an incoming req see
system.mem_ctrls.wrQLenPdf::34                      0                       # What write queue length does an incoming req see
system.mem_ctrls.wrQLenPdf::35                      0                       # What write queue length does an incoming req see
system.mem_ctrls.wrQLenPdf::36                      0                       # What write queue length does an incoming req see
system.mem_ctrls.wrQLenPdf::37                      0                       # What write queue length does an incoming req see
system.mem_ctrls.wrQLenPdf::38                      0                       # What write queue length does an incoming req see
system.mem_ctrls.wrQLenPdf::39                      0                       # What write queue length does an incoming req see
system.mem_ctrls.wrQLenPdf::40                      0                       # What write queue length does an incoming req see
system.mem_ctrls.wrQLenPdf::41                      0                       # What write queue length does an incoming req see
system.mem_ctrls.wrQLenPdf::42                      0                       # What write queue length does an incoming req see
system.mem_ctrls.wrQLenPdf::43                      0                       # What write queue length does an incoming req see
system.mem_ctrls.wrQLenPdf::44                      0                       # What write queue length does an incoming req see
system.mem_ctrls.wrQLenPdf::45                      0                       # What write queue length does an incoming req see
system.mem_ctrls.wrQLenPdf::46                      0                       # What write queue length does an incoming req see
system.mem_ctrls.wrQLenPdf::47                      0                       # What write queue length does an incoming req see
system.mem_ctrls.wrQLenPdf::48                      0                       # What write queue length does an incoming req see
system.mem_ctrls.wrQLenPdf::49                      0                       # What write queue length does an incoming req see
system.mem_ctrls.wrQLenPdf::50                      0                       # What write queue length does an incoming req see
system.mem_ctrls.wrQLenPdf::51                      0                       # What write queue length does an incoming req see
system.mem_ctrls.wrQLenPdf::52                      0                       # What write queue length does an incoming req see
system.mem_ctrls.wrQLenPdf::53                      0                       # What write queue length does an incoming req see
system.mem_ctrls.wrQLenPdf::54                      0                       # What write queue length does an incoming req see
system.mem_ctrls.wrQLenPdf::55                      0                       # What write queue length does an incoming req see
system.mem_ctrls.wrQLenPdf::56                      0                       # What write queue length does an incoming req see
system.mem_ctrls.wrQLenPdf::57                      0                       # What write queue length does an incoming req see
system.mem_ctrls.wrQLenPdf::58                      0                       # What write queue length does an incoming req see
system.mem_ctrls.wrQLenPdf::59                      0                       # What write queue length does an incoming req see
system.mem_ctrls.wrQLenPdf::60                      0                       # What write queue length does an incoming req see
system.mem_ctrls.wrQLenPdf::61                      0                       # What write queue length does an incoming req see
system.mem_ctrls.wrQLenPdf::62                      0                       # What write queue length does an incoming req see
system.mem_ctrls.wrQLenPdf::63                      0                       # What write queue length does an incoming req see
system.mem_ctrls.rdPerTurnAround::samples         4358                       # Reads before turning the bus around for writes
system.mem_ctrls.rdPerTurnAround::mean      43.183800                       # Reads before turning the bus around for writes
system.mem_ctrls.rdPerTurnAround::stdev    127.601341                       # Reads before turning the bus around for writes
system.mem_ctrls.rdPerTurnAround::0-255          4334     99.45%     99.45% # Reads before turning the bus around for writes
system.mem_ctrls.rdPerTurnAround::256-511           16      0.37%     99.82% # Reads before turning the bus around for writes
system.mem_ctrls.rdPerTurnAround::512-767            6      0.14%     99.95% # Reads before turning the bus around for writes
system.mem_ctrls.rdPerTurnAround::5120-5375            1      0.02%     99.98% # Reads before turning the bus around for writes
system.mem_ctrls.rdPerTurnAround::6144-6399            1      0.02%    100.00% # Reads before turning the bus around for writes
system.mem_ctrls.rdPerTurnAround::total          4358                       # Reads before turning the bus around for writes
system.mem_ctrls.wrPerTurnAround::samples         4358                       # Writes before turning the bus around for reads
system.mem_ctrls.wrPerTurnAround::mean      17.743919                       # Writes before turning the bus around for reads
system.mem_ctrls.wrPerTurnAround::gmean     17.727361                       # Writes before turning the bus around for reads
system.mem_ctrls.wrPerTurnAround::stdev      0.748377                       # Writes before turning the bus around for reads
system.mem_ctrls.wrPerTurnAround::16              631     14.48%     14.48% # Writes before turning the bus around for reads
system.mem_ctrls.wrPerTurnAround::17               28      0.64%     15.12% # Writes before turning the bus around for reads
system.mem_ctrls.wrPerTurnAround::18             3525     80.89%     96.01% # Writes before turning the bus around for reads
system.mem_ctrls.wrPerTurnAround::19              174      3.99%    100.00% # Writes before turning the bus around for reads
system.mem_ctrls.wrPerTurnAround::total          4358                       # Writes before turning the bus around for reads
system.mem_ctrls.bytesReadWrQ                   54848                       # Total number of bytes read from write queue
system.mem_ctrls.bytesReadSys                 6050784                       # Total read bytes from the system interface side
system.mem_ctrls.bytesWrittenSys              4674720                       # Total written bytes from the system interface side
system.mem_ctrls.avgRdBWSys                     44.05                       # Average system read bandwidth in MiByte/s
system.mem_ctrls.avgWrBWSys                     34.03                       # Average system write bandwidth in MiByte/s
system.mem_ctrls.totGap                  137356879500                       # Total gap between requests
system.mem_ctrls.avgGap                     409810.13                       # Average gap between requests
system.mem_ctrls.requestorReadBytes::.cpu.inst       126496                       # Per-requestor bytes read from memory
system.mem_ctrls.requestorReadBytes::.cpu.data      5896864                       # Per-requestor bytes read from memory
system.mem_ctrls.requestorWriteBytes::.writebacks      2474496                       # Per-requestor bytes write to memory
[...]
system.mem_ctrls.dram.bw_total::.cpu.data     43130601                       # Total bandwidth to/from this memory (bytes/s)
system.mem_ctrls.dram.bw_total::total        78084900                       # Total bandwidth to/from this memory (bytes/s)
system.mem_ctrls.dram.readBursts               188230                       # Number of DRAM read bursts
system.mem_ctrls.dram.writeBursts               77328                       # Number of DRAM write bursts
system.mem_ctrls.dram.perBankRdBursts::0        12149                       # Per bank write bursts
system.mem_ctrls.dram.perBankRdBursts::1        11784                       # Per bank write bursts
system.mem_ctrls.dram.perBankRdBursts::2        11858                       # Per bank write bursts
system.mem_ctrls.dram.perBankRdBursts::3        12743                       # Per bank write bursts
system.mem_ctrls.dram.perBankRdBursts::4        11624                       # Per bank write bursts
system.mem_ctrls.dram.perBankRdBursts::5        11057                       # Per bank write bursts
system.mem_ctrls.dram.perBankRdBursts::6        10937                       # Per bank write bursts
system.mem_ctrls.dram.perBankRdBursts::7        11727                       # Per bank write bursts
system.mem_ctrls.dram.perBankRdBursts::8        12154                       # Per bank write bursts
system.mem_ctrls.dram.perBankRdBursts::9        12639                       # Per bank write bursts
system.mem_ctrls.dram.perBankRdBursts::10        12494                       # Per bank write bursts
system.mem_ctrls.dram.perBankRdBursts::11        11510                       # Per bank write bursts
system.mem_ctrls.dram.perBankRdBursts::12        11279                       # Per bank write bursts
system.mem_ctrls.dram.perBankRdBursts::13        11021                       # Per bank write bursts
system.mem_ctrls.dram.perBankRdBursts::14        11366                       # Per bank write bursts
system.mem_ctrls.dram.perBankRdBursts::15        11888                       # Per bank write bursts
system.mem_ctrls.dram.perBankWrBursts::0         4981                       # Per bank write bursts
system.mem_ctrls.dram.perBankWrBursts::1         4826                       # Per bank write bursts
system.mem_ctrls.dram.perBankWrBursts::2         4940                       # Per bank write bursts
system.mem_ctrls.dram.perBankWrBursts::3         5047                       # Per bank write bursts
system.mem_ctrls.dram.perBankWrBursts::4         4614                       # Per bank write bursts
system.mem_ctrls.dram.perBankWrBursts::5         4582                       # Per bank write bursts
system.mem_ctrls.dram.perBankWrBursts::6         4856                       # Per bank write bursts
system.mem_ctrls.dram.perBankWrBursts::7         4544                       # Per bank write bursts
system.mem_ctrls.dram.perBankWrBursts::8         5080                       # Per bank write bursts
system.mem_ctrls.dram.perBankWrBursts::9         5050                       # Per bank write bursts
system.mem_ctrls.dram.perBankWrBursts::10         5022                       # Per bank write bursts
system.mem_ctrls.dram.perBankWrBursts::11         4815                       # Per bank write bursts
system.mem_ctrls.dram.perBankWrBursts::12         4854                       # Per bank write bursts
system.mem_ctrls.dram.perBankWrBursts::13         4590                       # Per bank write bursts
system.mem_ctrls.dram.perBankWrBursts::14         4794                       # Per bank write bursts
system.mem_ctrls.dram.perBankWrBursts::15         4733                       # Per bank write bursts
system.mem_ctrls.dram.totQLat              2192219250                       # Total ticks spent queuing
system.mem_ctrls.dram.totBusLat             941150000                       # Total ticks spent in databus transfers
system.mem_ctrls.dram.totMemAccLat         5721531750                       # Total ticks spent from burst creation until serviced by the DRAM
system.mem_ctrls.dram.avgQLat                11646.49                       # Average queueing delay per DRAM burst
system.mem_ctrls.dram.avgBusLat               5000.00                       # Average bus latency per DRAM burst
system.mem_ctrls.dram.avgMemAccLat           30396.49                       # Average memory access latency per DRAM burst
system.mem_ctrls.dram.readRowHits              120398                       # Number of row buffer hits during reads
system.mem_ctrls.dram.writeRowHits              67075                       # Number of row buffer hits during writes
system.mem_ctrls.dram.readRowHitRate            63.96                       # Row buffer hit rate for reads
system.mem_ctrls.dram.writeRowHitRate           86.74                       # Row buffer hit rate for writes
system.mem_ctrls.dram.bytesPerActivate::samples        78072                       # Bytes accessed per row activation
system.mem_ctrls.dram.bytesPerActivate::mean   217.646890                       # Bytes accessed per row activation
system.mem_ctrls.dram.bytesPerActivate::gmean   125.334286                       # Bytes accessed per row activation
system.mem_ctrls.dram.bytesPerActivate::stdev   274.524282                       # Bytes accessed per row activation
system.mem_ctrls.dram.bytesPerActivate::0-127        47980     61.46%     61.46% # Bytes accessed per row activation
system.mem_ctrls.dram.bytesPerActivate::128-255         6960      8.91%     70.37% # Bytes accessed per row activation
system.mem_ctrls.dram.bytesPerActivate::256-383        10545     13.51%     83.88% # Bytes accessed per row activation
system.mem_ctrls.dram.bytesPerActivate::384-511         1792      2.30%     86.17% # Bytes accessed per row activation
system.mem_ctrls.dram.bytesPerActivate::512-639         1751      2.24%     88.42% # Bytes accessed per row activation
system.mem_ctrls.dram.bytesPerActivate::640-767         2060      2.64%     91.05% # Bytes accessed per row activation
system.mem_ctrls.dram.bytesPerActivate::768-895         1234      1.58%     92.64% # Bytes accessed per row activation
system.mem_ctrls.dram.bytesPerActivate::896-1023         1178      1.51%     94.14% # Bytes accessed per row activation
system.mem_ctrls.dram.bytesPerActivate::1024-1151         4572      5.86%    100.00% # Bytes accessed per row activation
system.mem_ctrls.dram.bytesPerActivate::total        78072                       # Bytes accessed per row activation
system.mem_ctrls.dram.bytesRead              12046720                       # Total number of bytes read from DRAM
system.mem_ctrls.dram.bytesWritten            4948992                       # Total number of bytes written to DRAM
system.mem_ctrls.dram.avgRdBW               87.703751                       # Average DRAM read bandwidth in MiBytes/s
system.mem_ctrls.dram.avgWrBW               36.030153                       # Average DRAM write bandwidth in MiBytes/s
system.mem_ctrls.dram.peakBW                 12800.00                       # Theoretical peak bandwidth in MiByte/s
system.mem_ctrls.dram.busUtil                    0.97                       # Data bus utilization in percentage
system.mem_ctrls.dram.busUtilRead                0.69                       # Data bus utilization in percentage for reads
system.mem_ctrls.dram.busUtilWrite               0.28                       # Data bus utilization in percentage for writes
system.mem_ctrls.dram.pageHitRate               70.60                       # Row buffer hit rate, read and write combined
system.mem_ctrls.dram.power_state.pwrStateResidencyTicks::UNDEFINED 137356953500                       # Cumulative time (in ticks) in various power states
system.mem_ctrls.dram.rank0.actEnergy       278517120                       # Energy for activate commands per rank (pJ)
system.mem_ctrls.dram.rank0.preEnergy       148008795                       # Energy for precharge commands per rank (pJ)
system.mem_ctrls.dram.rank0.readEnergy      670296060                       # Energy for read commands per rank (pJ)
system.mem_ctrls.dram.rank0.writeEnergy     200395800                       # Energy for write commands per rank (pJ)
system.mem_ctrls.dram.rank0.refreshEnergy 10842249600.000002                       # Energy for refresh commands per rank (pJ)
system.mem_ctrls.dram.rank0.actBackEnergy  24119274690                       # Energy for active background per rank (pJ)
system.mem_ctrls.dram.rank0.preBackEnergy  32434102080                       # Energy for precharge background per rank (pJ)
system.mem_ctrls.dram.rank0.actPowerDownEnergy            0                       # Energy for active power-down per rank (pJ)
system.mem_ctrls.dram.rank0.prePowerDownEnergy            0                       # Energy for precharge power-down per rank (pJ)
system.mem_ctrls.dram.rank0.selfRefreshEnergy            0                       # Energy for self refresh per rank (pJ)
system.mem_ctrls.dram.rank0.totalEnergy   68692844145                       # Total energy per rank (pJ)
system.mem_ctrls.dram.rank0.averagePower   500.104599                       # Core power per rank (mW)
system.mem_ctrls.dram.rank0.totalIdleTime            0                       # Total Idle time Per DRAM Rank
system.mem_ctrls.dram.rank0.pwrStateTime::IDLE  83935213750                       # Time in different power states
system.mem_ctrls.dram.rank0.pwrStateTime::REF   4586400000                       # Time in different power states
system.mem_ctrls.dram.rank0.pwrStateTime::SREF            0                       # Time in different power states
system.mem_ctrls.dram.rank0.pwrStateTime::PRE_PDN            0                       # Time in different power states
system.mem_ctrls.dram.rank0.pwrStateTime::ACT  48835339750                       # Time in different power states
system.mem_ctrls.dram.rank0.pwrStateTime::ACT_PDN            0                       # Time in different power states
system.mem_ctrls.dram.rank1.actEnergy       279009780                       # Energy for activate commands per rank (pJ)
system.mem_ctrls.dram.rank1.preEnergy       148274445                       # Energy for precharge commands per rank (pJ)
system.mem_ctrls.dram.rank1.readEnergy      673666140                       # Energy for read commands per rank (pJ)
system.mem_ctrls.dram.rank1.writeEnergy     203256360                       # Energy for write commands per rank (pJ)
system.mem_ctrls.dram.rank1.refreshEnergy 10842249600.000002                       # Energy for refresh commands per rank (pJ)
system.mem_ctrls.dram.rank1.actBackEnergy  24800352300                       # Energy for active background per rank (pJ)
system.mem_ctrls.dram.rank1.preBackEnergy  31860563040                       # Energy for precharge background per rank (pJ)
system.mem_ctrls.dram.rank1.actPowerDownEnergy            0                       # Energy for active power-down per rank (pJ)
system.mem_ctrls.dram.rank1.prePowerDownEnergy            0                       # Energy for precharge power-down per rank (pJ)
system.mem_ctrls.dram.rank1.selfRefreshEnergy            0                       # Energy for self refresh per rank (pJ)
system.mem_ctrls.dram.rank1.totalEnergy   68807371665                       # Total energy per rank (pJ)
system.mem_ctrls.dram.rank1.averagePower   500.938394                       # Core power per rank (mW)
system.mem_ctrls.dram.rank1.totalIdleTime            0                       # Total Idle time Per DRAM Rank
system.mem_ctrls.dram.rank1.pwrStateTime::IDLE  82378031750                       # Time in different power states
system.mem_ctrls.dram.rank1.pwrStateTime::REF   4586400000                       # Time in different power states
system.mem_ctrls.dram.rank1.pwrStateTime::SREF            0                       # Time in different power states
system.mem_ctrls.dram.rank1.pwrStateTime::PRE_PDN            0                       # Time in different power states
system.mem_ctrls.dram.rank1.pwrStateTime::ACT  50392521750                       # Time in different power states
system.mem_ctrls.dram.rank1.pwrStateTime::ACT_PDN            0                       # Time in different power states
system.mem_ctrls.power_state.pwrStateResidencyTicks::UNDEFINED 137356953500                       # Cumulative time (in ticks) in various power states
system.membus.trans_dist::ReadResp              78506                       # Transaction distribution
system.membus.trans_dist::WritebackDirty       146085                       # Transaction distribution
system.membus.trans_dist::CleanEvict            33509                       # Transaction distribution
system.membus.trans_dist::ReadExReq            110581                       # Transaction distribution
system.membus.trans_dist::ReadExResp           110581                       # Transaction distribution
system.membus.trans_dist::ReadSharedReq         78506                       # Transaction distribution
system.membus.pkt_count_system.l2.mem_side_port::system.mem_ctrls.port       557768                       # Packet count per connected requestor and responder (bytes)
system.membus.pkt_count_system.l2.mem_side_port::total       557768                       # Packet count per connected requestor and responder (bytes)
system.membus.pkt_count::total                 557768                       # Packet count per connected requestor and responder (bytes)
system.membus.pkt_size_system.l2.mem_side_port::system.mem_ctrls.port     10725504                       # Cumulative packet size per connected requestor and responder (bytes)
system.membus.pkt_size_system.l2.mem_side_port::total     10725504                       # Cumulative packet size per connected requestor and responder (bytes)
system.membus.pkt_size::total                10725504                       # Cumulative packet size per connected requestor and responder (bytes)
system.membus.snoops                                0                       # Total snoops (count)
system.membus.snoopTraffic                          0                       # Total snoop traffic (bytes)
system.membus.snoop_fanout::samples            189087                       # Request fanout histogram
system.membus.snoop_fanout::mean                    0                       # Request fanout histogram
system.membus.snoop_fanout::stdev                   0                       # Request fanout histogram
system.membus.snoop_fanout::underflows              0      0.00%      0.00% # Request fanout histogram
system.membus.snoop_fanout::0                  189087    100.00%    100.00% # Request fanout histogram
system.membus.snoop_fanout::1                       0      0.00%    100.00% # Request fanout histogram
system.membus.snoop_fanout::overflows               0      0.00%    100.00% # Request fanout histogram
system.membus.snoop_fanout::min_value               0                       # Request fanout histogram
system.membus.snoop_fanout::max_value               0                       # Request fanout histogram
system.membus.snoop_fanout::total              189087                       # Request fanout histogram
system.membus.power_state.pwrStateResidencyTicks::UNDEFINED 137356953500                       # Cumulative time (in ticks) in various power states
system.membus.reqLayer2.occupancy           660891500                       # Layer occupancy (ticks)
system.membus.reqLayer2.utilization               0.5                       # Layer utilization (%)
system.membus.respLayer1.occupancy          641004250                       # Layer occupancy (ticks)
system.membus.respLayer1.utilization              0.5                       # Layer utilization (%)
system.tol2bus.trans_dist::ReadResp             82621                       # Transaction distribution
system.tol2bus.trans_dist::WritebackDirty       298375                       # Transaction distribution
system.tol2bus.trans_dist::WritebackClean          869                       # Transaction distribution
system.tol2bus.trans_dist::CleanEvict          216432                       # Transaction distribution
system.tol2bus.trans_dist::ReadExReq           110849                       # Transaction distribution
system.tol2bus.trans_dist::ReadExResp          110849                       # Transaction distribution
system.tol2bus.trans_dist::ReadCleanReq          3974                       # Transaction distribution
system.tol2bus.trans_dist::ReadSharedReq        78647                       # Transaction distribution
system.tol2bus.pkt_count_system.cpu.icache.mem_side_port::system.l2.cpu_side_port         8817                       # Packet count per connected requestor and responder (bytes)
system.tol2bus.pkt_count_system.cpu.dcache.mem_side_port::system.l2.cpu_side_port       564392                       # Packet count per connected requestor and responder (bytes)
system.tol2bus.pkt_count::total                573209                       # Packet count per connected requestor and responder (bytes)
system.tol2bus.pkt_size_system.cpu.icache.mem_side_port::system.l2.cpu_side_port       154976                       # Cumulative packet size per connected requestor and responder (bytes)
system.tol2bus.pkt_size_system.cpu.dcache.mem_side_port::system.l2.cpu_side_port     10937152                       # Cumulative packet size per connected requestor and responder (bytes)
system.tol2bus.pkt_size::total               11092128                       # Cumulative packet size per connected requestor and responder (bytes)
system.tol2bus.snoops                          329407                       # Total snoops (count)
system.tol2bus.snoopTraffic                   4674720                       # Total snoop traffic (bytes)
system.tol2bus.snoop_fanout::samples           522877                       # Request fanout histogram
system.tol2bus.snoop_fanout::mean            0.339520                       # Request fanout histogram
system.tol2bus.snoop_fanout::stdev           0.473547                       # Request fanout histogram
system.tol2bus.snoop_fanout::underflows             0      0.00%      0.00% # Request fanout histogram
system.tol2bus.snoop_fanout::0                 345350     66.05%     66.05% # Request fanout histogram
system.tol2bus.snoop_fanout::1                 177527     33.95%    100.00% # Request fanout histogram
system.tol2bus.snoop_fanout::2                      0      0.00%    100.00% # Request fanout histogram
system.tol2bus.snoop_fanout::3                      0      0.00%    100.00% # Request fanout histogram
system.tol2bus.snoop_fanout::4                      0      0.00%    100.00% # Request fanout histogram
system.tol2bus.snoop_fanout::overflows              0      0.00%    100.00% # Request fanout histogram
system.tol2bus.snoop_fanout::min_value              0                       # Request fanout histogram
system.tol2bus.snoop_fanout::max_value              1                       # Request fanout histogram
system.tol2bus.snoop_fanout::total             522877                       # Request fanout histogram
system.tol2bus.power_state.pwrStateResidencyTicks::UNDEFINED 137356953500                       # Cumulative time (in ticks) in various power states
system.tol2bus.reqLayer0.occupancy          266449000                       # Layer occupancy (ticks)
system.tol2bus.reqLayer0.utilization              0.2                       # Layer utilization (%)
system.tol2bus.respLayer0.occupancy           3974000                       # Layer occupancy (ticks)
system.tol2bus.respLayer0.utilization             0.0                       # Layer utilization (%)
system.tol2bus.respLayer1.occupancy         189496000                       # Layer occupancy (ticks)
system.tol2bus.respLayer1.utilization             0.1                       # Layer utilization (%)
system.voltage_domain.voltage                       1                       # Voltage in Volts

---------- End Simulation Statistics   ----------
