
---------- Begin Simulation Statistics ----------
final_tick                               137473206500                       # Number of ticks from beginning of simulation (restored from checkpoints and never reset)
host_inst_rate                                 362902                       # Simulator instruction rate (inst/s)
host_mem_usage                                 712644                       # Number of bytes of host memory used
host_op_rate                                   555146                       # Simulator op (including micro ops) rate (op/s)
host_seconds                                   174.80                       # Real time elapsed on the host
host_tick_rate                              786438462                       # Simulator tick rate (ticks/s)
sim_freq                                 1000000000000                       # Frequency of simulated ticks
sim_insts                                    63436881                       # Number of instructions simulated
sim_ops                                      97042211                       # Number of ops (including micro ops) simulated
sim_seconds                                  0.137473                       # Number of seconds simulated
sim_ticks                                137473206500                       # Number of ticks simulated
system.cpu.Branches                           7714393                       # Number of branches fetched
system.cpu.committedInsts                    63436881                       # Number of instructions committed
system.cpu.committedOps                      97042211                       # Number of ops (including micro ops) committed
system.cpu.idle_fraction                     0.000000                       # Percentage of idle cycles
system.cpu.not_idle_fraction                 1.000000                       # Percentage of non-idle cycles
system.cpu.numCycles                        274946413                       # number of cpu cycles simulated
system.cpu.numWorkItemsCompleted                    0                       # number of work items this cpu completed
system.cpu.numWorkItemsStarted                      0                       # number of work items this cpu started
system.cpu.num_busy_cycles               274946412.998000                       # Number of busy cycles
system.cpu.num_cc_register_reads             29902187                       # number of times the CC registers were read
system.cpu.num_cc_register_writes            27168377                       # number of times the CC registers were written
system.cpu.num_conditional_control_insts      4234783                       # number of instructions that are conditional controls
system.cpu.num_fp_alu_accesses                  85206                       # Number of float alu accesses
system.cpu.num_fp_insts                         85206                       # number of float instructions
system.cpu.num_fp_register_reads               119500                       # number of times the floating registers were read
system.cpu.num_fp_register_writes               63458                       # number of times the floating registers were written
system.cpu.num_func_calls                     1924148                       # number of times a function call or return occured
system.cpu.num_idle_cycles                   0.002000                       # Number of idle cycles
system.cpu.num_int_alu_accesses              95088668                       # Number of integer alu accesses
system.cpu.num_int_insts                     95088668                       # number of integer instructions
system.cpu.num_int_register_reads           214307220                       # number of times the integer registers were read
system.cpu.num_int_register_writes           77409627                       # number of times the integer registers were written
system.cpu.num_load_insts                    26073751                       # Number of load instructions
system.cpu.num_mem_refs                      36099174                       # number of memory refs
system.cpu.num_store_insts                   10025423                       # Number of store instructions
system.cpu.num_vec_alu_accesses                     0                       # Number of vector alu accesses
system.cpu.num_vec_insts                            0                       # number of vector instructions
system.cpu.num_vec_register_reads                   0                       # number of times the vector registers were read
system.cpu.num_vec_register_writes                  0                       # number of times the vector registers were written
system.cpu.op_class::No_OpClass                976243      1.01%      1.01% # Class of executed instruction
system.cpu.op_class::IntAlu                  59879192     61.70%     62.71% # Class of executed instruction
system.cpu.op_class::IntMult                       74      0.00%     62.71% # Class of executed instruction
system.cpu.op_class::IntDiv                     36240      0.04%     62.75% # Class of executed instruction
system.cpu.op_class::FloatAdd                    5590      0.01%     62.75% # Class of executed instruction
system.cpu.op_class::FloatCmp                       0      0.00%     62.75% # Class of executed instruction
system.cpu.op_class::FloatCvt                    1232      0.00%     62.75% # Class of executed instruction
system.cpu.op_class::FloatMult                      0      0.00%     62.75% # Class of executed instruction
system.cpu.op_class::FloatMultAcc                   0      0.00%     62.75% # Class of executed instruction
system.cpu.op_class::FloatDiv                       0      0.00%     62.75% # Class of executed instruction
system.cpu.op_class::FloatMisc                      0      0.00%     62.75% # Class of executed instruction
system.cpu.op_class::FloatSqrt                      0      0.00%     62.75% # Class of executed instruction
system.cpu.op_class::SimdAdd                     6716      0.01%     62.76% # Class of executed instruction
system.cpu.op_class::SimdAddAcc                     0      0.00%     62.76% # Class of executed instruction
system.cpu.op_class::SimdAlu                    12162      0.01%     62.77% # Class of executed instruction
system.cpu.op_class::SimdCmp                        6      0.00%     62.77% # Class of executed instruction
system.cpu.op_class::SimdCvt                    13804      0.01%     62.79% # Class of executed instruction
system.cpu.op_class::SimdMisc                   12230      0.01%     62.80% # Class of executed instruction
system.cpu.op_class::SimdMult                       0      0.00%     62.80% # Class of executed instruction
system.cpu.op_class::SimdMultAcc                    0      0.00%     62.80% # Class of executed instruction
system.cpu.op_class::SimdShift                    436      0.00%     62.80% # Class of executed instruction
system.cpu.op_class::SimdShiftAcc                   0      0.00%     62.80% # Class of executed instruction
system.cpu.op_class::SimdDiv                        0      0.00%     62.80% # Class of executed instruction
system.cpu.op_class::SimdSqrt                       0      0.00%     62.80% # Class of executed instruction
system.cpu.op_class::SimdFloatAdd                  10      0.00%     62.80% # Class of executed instruction
system.cpu.op_class::SimdFloatAlu                   0      0.00%     62.80% # Class of executed instruction
system.cpu.op_class::SimdFloatCmp                   0      0.00%     62.80% # Class of executed instruction
system.cpu.op_class::SimdFloatCvt                  30      0.00%     62.80% # Class of executed instruction
system.cpu.op_class::SimdFloatDiv                   0      0.00%     62.80% # Class of executed instruction
system.cpu.op_class::SimdFloatMisc                  0      0.00%     62.80% # Class of executed instruction
system.cpu.op_class::SimdFloatMult                 12      0.00%     62.80% # Class of executed instruction
system.cpu.op_class::SimdFloatMultAcc               0      0.00%     62.80% # Class of executed instruction
system.cpu.op_class::SimdFloatSqrt                  0      0.00%     62.80% # Class of executed instruction
system.cpu.op_class::SimdReduceAdd                  0      0.00%     62.80% # Class of executed instruction
system.cpu.op_class::SimdReduceAlu                  0      0.00%     62.80% # Class of executed instruction
system.cpu.op_class::SimdReduceCmp                  0      0.00%     62.80% # Class of executed instruction
system.cpu.op_class::SimdFloatReduceAdd             0      0.00%     62.80% # Class of executed instruction
system.cpu.op_class::SimdFloatReduceCmp             0      0.00%     62.80% # Class of executed instruction
system.cpu.op_class::SimdAes                        0      0.00%     62.80% # Class of executed instruction
system.cpu.op_class::SimdAesMix                     0      0.00%     62.80% # Class of executed instruction
system.cpu.op_class::SimdSha1Hash                   0      0.00%     62.80% # Class of executed instruction
system.cpu.op_class::SimdSha1Hash2                  0      0.00%     62.80% # Class of executed instruction
system.cpu.op_class::SimdSha256Hash                 0      0.00%     62.80% # Class of executed instruction
system.cpu.op_class::SimdSha256Hash2                0      0.00%     62.80% # Class of executed instruction
system.cpu.op_class::SimdShaSigma2                  0      0.00%     62.80% # Class of executed instruction
system.cpu.op_class::SimdShaSigma3                  0      0.00%     62.80% # Class of executed instruction
system.cpu.op_class::SimdPredAlu                    0      0.00%     62.80% # Class of executed instruction
system.cpu.op_class::MemRead                 26056914     26.85%     89.65% # Class of executed instruction
system.cpu.op_class::MemWrite                10011985     10.32%     99.97% # Class of executed instruction
system.cpu.op_class::FloatMemRead               16837      0.02%     99.99% # Class of executed instruction
system.cpu.op_class::FloatMemWrite              13438      0.01%    100.00% # Class of executed instruction
system.cpu.op_class::IprAccess                      0      0.00%    100.00% # Class of executed instruction
system.cpu.op_class::InstPrefetch                   0      0.00%    100.00% # Class of executed instruction
system.cpu.op_class::total                   97043151                       # Class of executed instruction
system.cpu.workload.numSyscalls                   100                       # Number of system calls
system.membus.snoop_filter.hit_multi_requests            0                       # Number of requests hitting in the snoop filter with multiple (>1) holders of the requested data.
system.membus.snoop_filter.hit_multi_snoops            0                       # Number of snoops hitting in the snoop filter with multiple (>1) holders of the requested data.
system.membus.snoop_filter.hit_single_requests       179753                       # Number of requests hitting in the snoop filter with a single holder of the requested data.
system.membus.snoop_filter.hit_single_snoops            0                       # Number of snoops hitting in the snoop filter with a single holder of the requested data.
system.membus.snoop_filter.tot_requests        368782                       # Total number of requests made to the snoop filter.
system.membus.snoop_filter.tot_snoops               0                       # Total number of snoops made to the snoop filter.
system.tol2bus.snoop_filter.hit_multi_requests            0                       # Number of requests hitting in the snoop filter with multiple (>1) holders of the requested data.
system.tol2bus.snoop_filter.hit_multi_snoops            0                       # Number of snoops hitting in the snoop filter with multiple (>1) holders of the requested data.
system.tol2bus.snoop_filter.hit_single_requests       190488                       # Number of requests hitting in the snoop filter with a single holder of the requested data.
system.tol2bus.snoop_filter.hit_single_snoops       174951                       # Number of snoops hitting in the snoop filter with a single holder of the requested data.
system.tol2bus.snoop_filter.tot_requests       388176                       # Total number of requests made to the snoop filter.
system.tol2bus.snoop_filter.tot_snoops         174951                       # Total number of snoops made to the snoop filter.
system.clk_domain.clock                          1000                       # Clock period in ticks
system.cpu.dcache.demand_hits::.cpu.data     35937759                       # number of demand (read+write) hits
system.cpu.dcache.demand_hits::total         35937759                       # number of demand (read+write) hits
system.cpu.dcache.overall_hits::.cpu.data     35937759                       # number of overall hits
system.cpu.dcache.overall_hits::total        35937759                       # number of overall hits
system.cpu.dcache.demand_misses::.cpu.data       193716                       # number of demand (read+write) misses
system.cpu.dcache.demand_misses::total         193716                       # number of demand (read+write) misses
system.cpu.dcache.overall_misses::.cpu.data       193716                       # number of overall misses
system.cpu.dcache.overall_misses::total        193716                       # number of overall misses
system.cpu.dcache.demand_miss_latency::.cpu.data  15673778000                       # number of demand (read+write) miss cycles
system.cpu.dcache.demand_miss_latency::total  15673778000                       # number of demand (read+write) miss cycles
system.cpu.dcache.overall_miss_latency::.cpu.data  15673778000                       # number of overall miss cycles
system.cpu.dcache.overall_miss_latency::total  15673778000                       # number of overall miss cycles
system.cpu.dcache.demand_accesses::.cpu.data     36131475                       # number of demand (read+write) accesses
system.cpu.dcache.demand_accesses::total     36131475                       # number of demand (read+write) accesses
system.cpu.dcache.overall_accesses::.cpu.data     36131475                       # number of overall (read+write) accesses
system.cpu.dcache.overall_accesses::total     36131475                       # number of overall (read+write) accesses
system.cpu.dcache.demand_miss_rate::.cpu.data     0.005361                       # miss rate for demand accesses
system.cpu.dcache.demand_miss_rate::total     0.005361                       # miss rate for demand accesses
system.cpu.dcache.overall_miss_rate::.cpu.data     0.005361                       # miss rate for overall accesses
system.cpu.dcache.overall_miss_rate::total     0.005361                       # miss rate for overall accesses
system.cpu.dcache.demand_avg_miss_latency::.cpu.data 80911.117306                       # average overall miss latency
system.cpu.dcache.demand_avg_miss_latency::total 80911.117306                       # average overall miss latency
system.cpu.dcache.overall_avg_miss_latency::.cpu.data 80911.117306                       # average overall miss latency
system.cpu.dcache.overall_avg_miss_latency::total 80911.117306                       # average overall miss latency
system.cpu.dcache.blocked_cycles::no_mshrs            0                       # number of cycles access was blocked
system.cpu.dcache.blocked_cycles::no_targets            0                       # number of cycles access was blocked
system.cpu.dcache.blocked::no_mshrs                 0                       # number of cycles access was blocked
system.cpu.dcache.blocked::no_targets               0                       # number of cycles access was blocked
system.cpu.dcache.avg_blocked_cycles::no_mshrs          nan                       # average number of cycles each access was blocked
system.cpu.dcache.avg_blocked_cycles::no_targets          nan                       # average number of cycles each access was blocked
system.cpu.dcache.writebacks::.writebacks       156827                       # number of writebacks
system.cpu.dcache.writebacks::total            156827                       # number of writebacks
system.cpu.dcache.demand_mshr_misses::.cpu.data       193716                       # number of demand (read+write) MSHR misses
system.cpu.dcache.demand_mshr_misses::total       193716                       # number of demand (read+write) MSHR misses
system.cpu.dcache.overall_mshr_misses::.cpu.data       193716                       # number of overall MSHR misses
system.cpu.dcache.overall_mshr_misses::total       193716                       # number of overall MSHR misses
system.cpu.dcache.demand_mshr_miss_latency::.cpu.data  15480062000                       # number of demand (read+write) MSHR miss cycles
system.cpu.dcache.demand_mshr_miss_latency::total  15480062000                       # number of demand (read+write) MSHR miss cycles
system.cpu.dcache.overall_mshr_miss_latency::.cpu.data  15480062000                       # number of overall MSHR miss cycles
system.cpu.dcache.overall_mshr_miss_latency::total  15480062000                       # number of overall MSHR miss cycles
system.cpu.dcache.demand_mshr_miss_rate::.cpu.data     0.005361                       # mshr miss rate for demand accesses
system.cpu.dcache.demand_mshr_miss_rate::total     0.005361                       # mshr miss rate for demand accesses
system.cpu.dcache.overall_mshr_miss_rate::.cpu.data     0.005361                       # mshr miss rate for overall accesses
system.cpu.dcache.overall_mshr_miss_rate::total     0.005361                       # mshr miss rate for overall accesses
system.cpu.dcache.demand_avg_mshr_miss_latency::.cpu.data 79911.117306                       # average overall mshr miss latency
system.cpu.dcache.demand_avg_mshr_miss_latency::total 79911.117306                       # average overall mshr miss latency
system.cpu.dcache.overall_avg_mshr_miss_latency::.cpu.data 79911.117306                       # average overall mshr miss latency
system.cpu.dcache.overall_avg_mshr_miss_latency::total 79911.117306                       # average overall mshr miss latency
system.cpu.dcache.replacements                 189620                       # number of replacements
system.cpu.dcache.ReadReq_hits::.cpu.data     25991065                       # number of ReadReq hits
system.cpu.dcache.ReadReq_hits::total        25991065                       # number of ReadReq hits
system.cpu.dcache.ReadReq_misses::.cpu.data        82806                       # number of ReadReq misses
system.cpu.dcache.ReadReq_misses::total         82806                       # number of ReadReq misses
system.cpu.dcache.ReadReq_miss_latency::.cpu.data   6991174500                       # number of ReadReq miss cycles
system.cpu.dcache.ReadReq_miss_latency::total   6991174500                       # number of ReadReq miss cycles
system.cpu.dcache.ReadReq_accesses::.cpu.data     26073871                       # number of ReadReq accesses(hits+misses)
system.cpu.dcache.ReadReq_accesses::total     26073871                       # number of ReadReq accesses(hits+misses)
system.cpu.dcache.ReadReq_miss_rate::.cpu.data     0.003176                       # miss rate for ReadReq accesses
system.cpu.dcache.ReadReq_miss_rate::total     0.003176                       # miss rate for ReadReq accesses
system.cpu.dcache.ReadReq_avg_miss_latency::.cpu.data 84428.356641                       # average ReadReq miss latency
system.cpu.dcache.ReadReq_avg_miss_latency::total 84428.356641                       # average ReadReq miss latency
system.cpu.dcache.ReadReq_mshr_misses::.cpu.data        82806                       # number of ReadReq MSHR misses
system.cpu.dcache.ReadReq_mshr_misses::total        82806                       # number of ReadReq MSHR misses
system.cpu.dcache.ReadReq_mshr_miss_latency::.cpu.data   6908368500                       # number of ReadReq MSHR miss cycles
system.cpu.dcache.ReadReq_mshr_miss_latency::total   6908368500                       # number of ReadReq MSHR miss cycles
system.cpu.dcache.ReadReq_mshr_miss_rate::.cpu.data     0.003176                       # mshr miss rate for ReadReq accesses
system.cpu.dcache.ReadReq_mshr_miss_rate::total     0.003176                       # mshr miss rate for ReadReq accesses
system.cpu.dcache.ReadReq_avg_mshr_miss_latency::.cpu.data 83428.356641                       # average ReadReq mshr miss latency
system.cpu.dcache.ReadReq_avg_mshr_miss_latency::total 83428.356641                       # average ReadReq mshr miss latency
system.cpu.dcache.WriteReq_hits::.cpu.data      9946694                       # number of WriteReq hits
system.cpu.dcache.WriteReq_hits::total        9946694                       # number of WriteReq hits
system.cpu.dcache.WriteReq_misses::.cpu.data       110910                       # number of WriteReq misses
system.cpu.dcache.WriteReq_misses::total       110910                       # number of WriteReq misses
system.cpu.dcache.WriteReq_miss_latency::.cpu.data   8682603500                       # number of WriteReq miss cycles
system.cpu.dcache.WriteReq_miss_latency::total   8682603500                       # number of WriteReq miss cycles
system.cpu.dcache.WriteReq_accesses::.cpu.data     10057604                       # number of WriteReq accesses(hits+misses)
system.cpu.dcache.WriteReq_accesses::total     10057604                       # number of WriteReq accesses(hits+misses)
system.cpu.dcache.WriteReq_miss_rate::.cpu.data     0.011027                       # miss rate for WriteReq accesses
system.cpu.dcache.WriteReq_miss_rate::total     0.011027                       # miss rate for WriteReq accesses
system.cpu.dcache.WriteReq_avg_miss_latency::.cpu.data 78285.127581                       # average WriteReq miss latency
system.cpu.dcache.WriteReq_avg_miss_latency::total 78285.127581                       # average WriteReq miss latency
system.cpu.dcache.WriteReq_mshr_misses::.cpu.data       110910                       # number of WriteReq MSHR misses
system.cpu.dcache.WriteReq_mshr_misses::total       110910                       # number of WriteReq MSHR misses
system.cpu.dcache.WriteReq_mshr_miss_latency::.cpu.data   8571693500                       # number of WriteReq MSHR miss cycles
system.cpu.dcache.WriteReq_mshr_miss_latency::total   8571693500                       # number of WriteReq MSHR miss cycles
system.cpu.dcache.WriteReq_mshr_miss_rate::.cpu.data     0.011027                       # mshr miss rate for WriteReq accesses
system.cpu.dcache.WriteReq_mshr_miss_rate::total     0.011027                       # mshr miss rate for WriteReq accesses
system.cpu.dcache.WriteReq_avg_mshr_miss_latency::.cpu.data 77285.127581                       # average WriteReq mshr miss latency
system.cpu.dcache.WriteReq_avg_mshr_miss_latency::total 77285.127581                       # average WriteReq mshr miss latency
system.cpu.dcache.power_state.pwrStateResidencyTicks::UNDEFINED 137473206500                       # Cumulative time (in ticks) in various power states
system.cpu.dcache.tags.tagsinuse          4085.880429                       # Cycle average of tags in use
system.cpu.dcache.tags.total_refs            36131475                       # Total number of references to valid blocks.
system.cpu.dcache.tags.sampled_refs            193716                       # Sample count of references to valid blocks.
system.cpu.dcache.tags.avg_refs            186.517763                       # Average number of references to valid blocks.
system.cpu.dcache.tags.warmup_cycle            174500                       # Cycle when the warmup percentage was hit.
system.cpu.dcache.tags.occ_blocks::.cpu.data  4085.880429                       # Average occupied blocks per requestor
system.cpu.dcache.tags.occ_percent::.cpu.data     0.997529                       # Average percentage of cache occupancy
system.cpu.dcache.tags.occ_percent::total     0.997529                       # Average percentage of cache occupancy
system.cpu.dcache.tags.occ_task_id_blocks::1024         4096                       # Occupied blocks per task id
system.cpu.dcache.tags.age_task_id_blocks_1024::0           35                       # Occupied blocks per task id
system.cpu.dcache.tags.age_task_id_blocks_1024::1          412                       # Occupied blocks per task id
system.cpu.dcache.tags.age_task_id_blocks_1024::2         3646                       # Occupied blocks per task id
system.cpu.dcache.tags.age_task_id_blocks_1024::3            3                       # Occupied blocks per task id
system.cpu.dcache.tags.occ_task_id_percent::1024            1                       # Percentage of cache occupancy per task id
system.cpu.dcache.tags.tag_accesses       18499508916                       # Number of tag accesses
system.cpu.dcache.tags.data_accesses      18499508916                       # Number of data accesses
system.cpu.dcache.tags.power_state.pwrStateResidencyTicks::UNDEFINED 137473206500                       # Cumulative time (in ticks) in various power states
system.cpu.dtb.rdAccesses                    26074093                       # TLB accesses on read requests
system.cpu.dtb.wrAccesses                    10058352                       # TLB accesses on write requests
system.cpu.dtb.rdMisses                          1987                       # TLB misses on read requests
system.cpu.dtb.wrMisses                          1560                       # TLB misses on write requests
system.cpu.dtb.walker.power_state.pwrStateResidencyTicks::UNDEFINED 137473206500                       # Cumulative time (in ticks) in various power states
system.cpu.dtb_walker_cache.blocked_cycles::no_mshrs            0                       # number of cycles access was blocked
system.cpu.dtb_walker_cache.blocked_cycles::no_targets            0                       # number of cycles access was blocked
system.cpu.dtb_walker_cache.blocked::no_mshrs            0                       # number of cycles access was blocked
system.cpu.dtb_walker_cache.blocked::no_targets            0                       # number of cycles access was blocked
system.cpu.dtb_walker_cache.avg_blocked_cycles::no_mshrs          nan                       # average number of cycles each access was blocked
system.cpu.dtb_walker_cache.avg_blocked_cycles::no_targets          nan                       # average number of cycles each access was blocked
system.cpu.dtb_walker_cache.replacements            0                       # number of replacements
system.cpu.dtb_walker_cache.power_state.pwrStateResidencyTicks::UNDEFINED 137473206500                       # Cumulative time (in ticks) in various power states
system.cpu.dtb_walker_cache.tags.tagsinuse            0                       # Cycle average of tags in use
system.cpu.dtb_walker_cache.tags.total_refs            0                       # Total number of references to valid blocks.
system.cpu.dtb_walker_cache.tags.sampled_refs            0                       # Sample count of references to valid blocks.
system.cpu.dtb_walker_cache.tags.avg_refs          nan                       # Average number of references to valid blocks.
system.cpu.dtb_walker_cache.tags.warmup_cycle            0                       # Cycle when the warmup percentage was hit.
system.cpu.dtb_walker_cache.tags.tag_accesses            0                       # Number of tag accesses
system.cpu.dtb_walker_cache.tags.data_accesses            0                       # Number of data accesses
system.cpu.dtb_walker_cache.tags.power_state.pwrStateResidencyTicks::UNDEFINED 137473206500                       # Cumulative time (in ticks) in various power states
system.cpu.icache.demand_hits::.cpu.inst     85584526                       # number of demand (read+write) hits
system.cpu.icache.demand_hits::total         85584526                       # number of demand (read+write) hits
system.cpu.icache.overall_hits::.cpu.inst     85584526                       # number of overall hits
system.cpu.icache.overall_hits::total        85584526                       # number of overall hits
system.cpu.icache.demand_misses::.cpu.inst         3972                       # number of demand (read+write) misses
system.cpu.icache.demand_misses::total           3972                       # number of demand (read+write) misses
system.cpu.icache.overall_misses::.cpu.inst         3972                       # number of overall misses
system.cpu.icache.overall_misses::total          3972                       # number of overall misses
system.cpu.icache.demand_miss_latency::.cpu.inst    311864000                       # number of demand (read+write) miss cycles
system.cpu.icache.demand_miss_latency::total    311864000                       # number of demand (read+write) miss cycles
system.cpu.icache.overall_miss_latency::.cpu.inst    311864000                       # number of overall miss cycles
system.cpu.icache.overall_miss_latency::total    311864000                       # number of overall miss cycles
system.cpu.icache.demand_accesses::.cpu.inst     85588498                       # number of demand (read+write) accesses
system.cpu.icache.demand_accesses::total     85588498                       # number of demand (read+write) accesses
system.cpu.icache.overall_accesses::.cpu.inst     85588498                       # number of overall (read+write) accesses
system.cpu.icache.overall_accesses::total     85588498                       # number of overall (read+write) accesses
system.cpu.icache.demand_miss_rate::.cpu.inst     0.000046                       # miss rate for demand accesses
system.cpu.icache.demand_miss_rate::total     0.000046                       # miss rate for demand accesses
system.cpu.icache.overall_miss_rate::.cpu.inst     0.000046                       # miss rate for overall accesses
system.cpu.icache.overall_miss_rate::total     0.000046                       # miss rate for overall accesses
system.cpu.icache.demand_avg_miss_latency::.cpu.inst 78515.609265                       # average overall miss latency
system.cpu.icache.demand_avg_miss_latency::total 78515.609265                       # average overall miss latency
system.cpu.icache.overall_avg_miss_latency::.cpu.inst 78515.609265                       # average overall miss latency
system.cpu.icache.overall_avg_miss_latency::total 78515.609265                       # average overall miss latency
system.cpu.icache.blocked_cycles::no_mshrs            0                       # number of cycles access was blocked
system.cpu.icache.blocked_cycles::no_targets            0                       # number of cycles access was blocked
system.cpu.icache.blocked::no_mshrs                 0                       # number of cycles access was blocked
system.cpu.icache.blocked::no_targets               0                       # number of cycles access was blocked
system.cpu.icache.avg_blocked_cycles::no_mshrs          nan                       # average number of cycles each access was blocked
system.cpu.icache.avg_blocked_cycles::no_targets          nan                       # average number of cycles each access was blocked
system.cpu.icache.writebacks::.writebacks          868                       # number of writebacks
system.cpu.icache.writebacks::total               868                       # number of writebacks
system.cpu.icache.demand_mshr_misses::.cpu.inst         3972                       # number of demand (read+write) MSHR misses
system.cpu.icache.demand_mshr_misses::total         3972                       # number of demand (read+write) MSHR misses
system.cpu.icache.overall_mshr_misses::.cpu.inst         3972                       # number of overall MSHR misses
system.cpu.icache.overall_mshr_misses::total         3972                       # number of overall MSHR misses
system.cpu.icache.demand_mshr_miss_latency::.cpu.inst    307892000                       # number of demand (read+write) MSHR miss cycles
system.cpu.icache.demand_mshr_miss_latency::total    307892000                       # number of demand (read+write) MSHR miss cycles
system.cpu.icache.overall_mshr_miss_latency::.cpu.inst    307892000                       # number of overall MSHR miss cycles
system.cpu.icache.overall_mshr_miss_latency::total    307892000                       # number of overall MSHR miss cycles
system.cpu.icache.demand_mshr_miss_rate::.cpu.inst     0.000046                       # mshr miss rate for demand accesses
system.cpu.icache.demand_mshr_miss_rate::total     0.000046                       # mshr miss rate for demand accesses
system.cpu.icache.overall_mshr_miss_rate::.cpu.inst     0.000046                       # mshr miss rate for overall accesses
system.cpu.icache.overall_mshr_miss_rate::total     0.000046                       # mshr miss rate for overall accesses
system.cpu.icache.demand_avg_mshr_miss_latency::.cpu.inst 77515.609265                       # average overall mshr miss latency
system.cpu.icache.demand_avg_mshr_miss_latency::total 77515.609265                       # average overall mshr miss latency
system.cpu.icache.overall_avg_mshr_miss_latency::.cpu.inst 77515.609265                       # average overall mshr miss latency
system.cpu.icache.overall_avg_mshr_miss_latency::total 77515.609265                       # average overall mshr miss latency
system.cpu.icache.replacements                    868                       # number of replacements
system.cpu.icache.ReadReq_hits::.cpu.inst     85584526                       # number of ReadReq hits
system.cpu.icache.ReadReq_hits::total        85584526                       # number of ReadReq hits
system.cpu.icache.ReadReq_misses::.cpu.inst         3972                       # number of ReadReq misses
system.cpu.icache.ReadReq_misses::total          3972                       # number of ReadReq misses
system.cpu.icache.ReadReq_miss_latency::.cpu.inst    311864000                       # number of ReadReq miss cycles
system.cpu.icache.ReadReq_miss_latency::total    311864000                       # number of ReadReq miss cycles
system.cpu.icache.ReadReq_accesses::.cpu.inst     85588498                       # number of ReadReq accesses(hits+misses)
system.cpu.icache.ReadReq_accesses::total     85588498                       # number of ReadReq accesses(hits+misses)
system.cpu.icache.ReadReq_miss_rate::.cpu.inst     0.000046                       # miss rate for ReadReq accesses
system.cpu.icache.ReadReq_miss_rate::total     0.000046                       # miss rate for ReadReq accesses
system.cpu.icache.ReadReq_avg_miss_latency::.cpu.inst 78515.609265                       # average ReadReq miss latency
system.cpu.icache.ReadReq_avg_miss_latency::total 78515.609265                       # average ReadReq miss latency
system.cpu.icache.ReadReq_mshr_misses::.cpu.inst         3972                       # number of ReadReq MSHR misses
system.cpu.icache.ReadReq_mshr_misses::total         3972                       # number of ReadReq MSHR misses
system.cpu.icache.ReadReq_mshr_miss_latency::.cpu.inst    307892000                       # number of ReadReq MSHR miss cycles
system.cpu.icache.ReadReq_mshr_miss_latency::total    307892000                       # number of ReadReq MSHR miss cycles
system.cpu.icache.ReadReq_mshr_miss_rate::.cpu.inst     0.000046                       # mshr miss rate for ReadReq accesses
system.cpu.icache.ReadReq_mshr_miss_rate::total     0.000046                       # mshr miss rate for ReadReq accesses
system.cpu.icache.ReadReq_avg_mshr_miss_latency::.cpu.inst 77515.609265                       # average ReadReq mshr miss latency
system.cpu.icache.ReadReq_avg_mshr_miss_latency::total 77515.609265                       # average ReadReq mshr miss latency
system.cpu.icache.power_state.pwrStateResidencyTicks::UNDEFINED 137473206500                       # Cumulative time (in ticks) in various power states
system.cpu.icache.tags.tagsinuse          2682.003695                       # Cycle average of tags in use
system.cpu.icache.tags.total_refs            85588498                       # Total number of references to valid blocks.
system.cpu.icache.tags.sampled_refs              3972                       # Sample count of references to valid blocks.
system.cpu.icache.tags.avg_refs          21547.960222                       # Average number of references to valid blocks.
system.cpu.icache.tags.warmup_cycle             87500                       # Cycle when the warmup percentage was hit.
system.cpu.icache.tags.occ_blocks::.cpu.inst  2682.003695                       # Average occupied blocks per requestor
system.cpu.icache.tags.occ_percent::.cpu.inst     0.654786                       # Average percentage of cache occupancy
system.cpu.icache.tags.occ_percent::total     0.654786                       # Average percentage of cache occupancy
system.cpu.icache.tags.occ_task_id_blocks::1024         3104                       # Occupied blocks per task id
system.cpu.icache.tags.age_task_id_blocks_1024::0           59                       # Occupied blocks per task id
system.cpu.icache.tags.age_task_id_blocks_1024::1          355                       # Occupied blocks per task id
system.cpu.icache.tags.age_task_id_blocks_1024::2           32                       # Occupied blocks per task id
system.cpu.icache.tags.age_task_id_blocks_1024::3          212                       # Occupied blocks per task id
system.cpu.icache.tags.age_task_id_blocks_1024::4         2446                       # Occupied blocks per task id
system.cpu.icache.tags.occ_task_id_percent::1024     0.757812                       # Percentage of cache occupancy per task id
system.cpu.icache.tags.tag_accesses         171180968                       # Number of tag accesses
system.cpu.icache.tags.data_accesses        171180968                       # Number of data accesses
system.cpu.icache.tags.power_state.pwrStateResidencyTicks::UNDEFINED 137473206500                       # Cumulative time (in ticks) in various power states
system.cpu.interrupts.clk_domain.clock           8000                       # Clock period in ticks
system.cpu.itb.rdAccesses                           0                       # TLB accesses on read requests
system.cpu.itb.wrAccesses                    85588627                       # TLB accesses on write requests
system.cpu.itb.rdMisses                             0                       # TLB misses on read requests
system.cpu.itb.wrMisses                           542                       # TLB misses on write requests
system.cpu.itb.walker.power_state.pwrStateResidencyTicks::UNDEFINED 137473206500                       # Cumulative time (in ticks) in various power states
system.cpu.itb_walker_cache.blocked_cycles::no_mshrs            0                       # number of cycles access was blocked
system.cpu.itb_walker_cache.blocked_cycles::no_targets            0                       # number of cycles access was blocked
system.cpu.itb_walker_cache.blocked::no_mshrs            0                       # number of cycles access was blocked
system.cpu.itb_walker_cache.blocked::no_targets            0                       # number of cycles access was blocked
system.cpu.itb_walker_cache.avg_blocked_cycles::no_mshrs          nan                       # average number of cycles each access was blocked
system.cpu.itb_walker_cache.avg_blocked_cycles::no_targets          nan                       # average number of cycles each access was blocked
system.cpu.itb_walker_cache.replacements            0                       # number of replacements
system.cpu.itb_walker_cache.power_state.pwrStateResidencyTicks::UNDEFINED 137473206500                       # Cumulative time (in ticks) in various power states
system.cpu.itb_walker_cache.tags.tagsinuse            0                       # Cycle average of tags in use
system.cpu.itb_walker_cache.tags.total_refs            0                       # Total number of references to valid blocks.
system.cpu.itb_walker_cache.tags.sampled_refs            0                       # Sample count of references to valid blocks.
system.cpu.itb_walker_cache.tags.avg_refs          nan                       # Average number of references to valid blocks.
system.cpu.itb_walker_cache.tags.warmup_cycle            0                       # Cycle when the warmup percentage was hit.
system.cpu.itb_walker_cache.tags.tag_accesses            0                       # Number of tag accesses
system.cpu.itb_walker_cache.tags.data_accesses            0                       # Number of data accesses
system.cpu.itb_walker_cache.tags.power_state.pwrStateResidencyTicks::UNDEFINED 137473206500                       # Cumulative time (in ticks) in various power states
system.cpu.power_state.pwrStateResidencyTicks::ON 137473206500                       # Cumulative time (in ticks) in various power states
system.cpu.thread_0.numInsts                        0                       # Number of Instructions committed
system.cpu.thread_0.numOps                          0                       # Number of Ops committed
system.cpu.thread_0.numMemRefs                      0                       # Number of Memory References
system.cpu_clk_domain.clock                       500                       # Clock period in ticks
system.cpu_voltage_domain.voltage                   1                       # Voltage in Volts
system.l2.demand_hits::.cpu.inst                   20                       # number of demand (read+write) hits
system.l2.demand_hits::.cpu.data                 8639                       # number of demand (read+write) hits
system.l2.demand_hits::total                     8659                       # number of demand (read+write) hits
system.l2.overall_hits::.cpu.inst                  20                       # number of overall hits
system.l2.overall_hits::.cpu.data                8639                       # number of overall hits
system.l2.overall_hits::total                    8659                       # number of overall hits
system.l2.demand_misses::.cpu.inst               3952                       # number of demand (read+write) misses
system.l2.demand_misses::.cpu.data             185077                       # number of demand (read+write) misses
system.l2.demand_misses::total                 189029                       # number of demand (read+write) misses
system.l2.overall_misses::.cpu.inst              3952                       # number of overall misses
system.l2.overall_misses::.cpu.data            185077                       # number of overall misses
system.l2.overall_misses::total                189029                       # number of overall misses
system.l2.demand_miss_latency::.cpu.inst    301724000                       # number of demand (read+write) miss cycles
system.l2.demand_miss_latency::.cpu.data  15098768000                       # number of demand (read+write) miss cycles
system.l2.demand_miss_latency::total      15400492000                       # number of demand (read+write) miss cycles
system.l2.overall_miss_latency::.cpu.inst    301724000                       # number of overall miss cycles
system.l2.overall_miss_latency::.cpu.data  15098768000                       # number of overall miss cycles
system.l2.overall_miss_latency::total     15400492000                       # number of overall miss cycles
system.l2.demand_accesses::.cpu.inst             3972                       # number of demand (read+write) accesses
system.l2.demand_accesses::.cpu.data           193716                       # number of demand (read+write) accesses
system.l2.demand_accesses::total               197688                       # number of demand (read+write) accesses
system.l2.overall_accesses::.cpu.inst            3972                       # number of overall (read+write) accesses
system.l2.overall_accesses::.cpu.data          193716                       # number of overall (read+write) accesses
system.l2.overall_accesses::total              197688                       # number of overall (read+write) accesses
system.l2.demand_miss_rate::.cpu.inst        0.994965                       # miss rate for demand accesses
system.l2.demand_miss_rate::.cpu.data        0.955404                       # miss rate for demand accesses
system.l2.demand_miss_rate::total            0.956199                       # miss rate for demand accesses
system.l2.overall_miss_rate::.cpu.inst       0.994965                       # miss rate for overall accesses
system.l2.overall_miss_rate::.cpu.data       0.955404                       # miss rate for overall accesses
system.l2.overall_miss_rate::total           0.956199                       # miss rate for overall accesses
system.l2.demand_avg_miss_latency::.cpu.inst 76347.165992                       # average overall miss latency
system.l2.demand_avg_miss_latency::.cpu.data 81581.006824                       # average overall miss latency
system.l2.demand_avg_miss_latency::total 81471.583725                       # average overall miss latency
system.l2.overall_avg_miss_latency::.cpu.inst 76347.165992                       # average overall miss latency
system.l2.overall_avg_miss_latency::.cpu.data 81581.006824                       # average overall miss latency
system.l2.overall_avg_miss_latency::total 81471.583725                       # average overall miss latency
system.l2.blocked_cycles::no_mshrs                  0                       # number of cycles access was blocked
system.l2.blocked_cycles::no_targets                0                       # number of cycles access was blocked
system.l2.blocked::no_mshrs                         0                       # number of cycles access was blocked
system.l2.blocked::no_targets                       0                       # number of cycles access was blocked
system.l2.avg_blocked_cycles::no_mshrs            nan                       # average number of cycles each access was blocked
system.l2.avg_blocked_cycles::no_targets          nan                       # average number of cycles each access was blocked
system.l2.writebacks::.writebacks              146494                       # number of writebacks
system.l2.writebacks::total                    146494                       # number of writebacks
system.l2.demand_mshr_misses::.cpu.inst          3952                       # number of demand (read+write) MSHR misses
system.l2.demand_mshr_misses::.cpu.data        185077                       # number of demand (read+write) MSHR misses
system.l2.demand_mshr_misses::total            189029                       # number of demand (read+write) MSHR misses
system.l2.overall_mshr_misses::.cpu.inst         3952                       # number of overall MSHR misses
system.l2.overall_mshr_misses::.cpu.data       185077                       # number of overall MSHR misses
system.l2.overall_mshr_misses::total           189029                       # number of overall MSHR misses
system.l2.demand_mshr_miss_latency::.cpu.inst    262204000                       # number of demand (read+write) MSHR miss cycles
system.l2.demand_mshr_miss_latency::.cpu.data  13247998000                       # number of demand (read+write) MSHR miss cycles
system.l2.demand_mshr_miss_latency::total  13510202000                       # number of demand (read+write) MSHR miss cycles
system.l2.overall_mshr_miss_latency::.cpu.inst    262204000                       # number of overall MSHR miss cycles
system.l2.overall_mshr_miss_latency::.cpu.data  13247998000                       # number of overall MSHR miss cycles
system.l2.overall_mshr_miss_latency::total  13510202000                       # number of overall MSHR miss cycles
system.l2.demand_mshr_miss_rate::.cpu.inst     0.994965                       # mshr miss rate for demand accesses
system.l2.demand_mshr_miss_rate::.cpu.data     0.955404                       # mshr miss rate for demand accesses
system.l2.demand_mshr_miss_rate::total       0.956199                       # mshr miss rate for demand accesses
system.l2.overall_mshr_miss_rate::.cpu.inst     0.994965                       # mshr miss rate for overall accesses
system.l2.overall_mshr_miss_rate::.cpu.data     0.955404                       # mshr miss rate for overall accesses
system.l2.overall_mshr_miss_rate::total      0.956199                       # mshr miss rate for overall accesses
system.l2.demand_avg_mshr_miss_latency::.cpu.inst 66347.165992                       # average overall mshr miss latency
system.l2.demand_avg_mshr_miss_latency::.cpu.data 71581.006824                       # average overall mshr miss latency
system.l2.demand_avg_mshr_miss_latency::total 71471.583725                       # average overall mshr miss latency
system.l2.overall_avg_mshr_miss_latency::.cpu.inst 66347.165992                       # average overall mshr miss latency
system.l2.overall_avg_mshr_miss_latency::.cpu.data 71581.006824                       # average overall mshr miss latency
system.l2.overall_avg_mshr_miss_latency::total 71471.583725                       # average overall mshr miss latency
system.l2.replacements                         328835                       # number of replacements
system.l2.WritebackDirty_hits::.writebacks       156827                       # number of WritebackDirty hits
system.l2.WritebackDirty_hits::total           156827                       # number of WritebackDirty hits
system.l2.WritebackDirty_accesses::.writebacks       156827                       # number of WritebackDirty accesses(hits+misses)
system.l2.WritebackDirty_accesses::total       156827                       # number of WritebackDirty accesses(hits+misses)
system.l2.WritebackClean_hits::.writebacks          868                       # number of WritebackClean hits
system.l2.WritebackClean_hits::total              868                       # number of WritebackClean hits
system.l2.WritebackClean_accesses::.writebacks          868                       # number of WritebackClean accesses(hits+misses)
system.l2.WritebackClean_accesses::total          868                       # number of WritebackClean accesses(hits+misses)
system.l2.CleanEvict_mshr_misses::.writebacks        25869                       # number of CleanEvict MSHR misses
system.l2.CleanEvict_mshr_misses::total         25869                       # number of CleanEvict MSHR misses
system.l2.CleanEvict_mshr_miss_rate::.writebacks          inf                       # mshr miss rate for CleanEvict accesses
system.l2.CleanEvict_mshr_miss_rate::total          inf                       # mshr miss rate for CleanEvict accesses
system.l2.ReadExReq_hits::.cpu.data               304                       # number of ReadExReq hits
system.l2.ReadExReq_hits::total                   304                       # number of ReadExReq hits
system.l2.ReadExReq_misses::.cpu.data          110606                       # number of ReadExReq misses
system.l2.ReadExReq_misses::total              110606                       # number of ReadExReq misses
system.l2.ReadExReq_miss_latency::.cpu.data   8402135500                       # number of ReadExReq miss cycles
system.l2.ReadExReq_miss_latency::total    8402135500                       # number of ReadExReq miss cycles
system.l2.ReadExReq_accesses::.cpu.data        110910                       # number of ReadExReq accesses(hits+misses)
system.l2.ReadExReq_accesses::total            110910                       # number of ReadExReq accesses(hits+misses)
system.l2.ReadExReq_miss_rate::.cpu.data     0.997259                       # miss rate for ReadExReq accesses
system.l2.ReadExReq_miss_rate::total         0.997259                       # miss rate for ReadExReq accesses
system.l2.ReadExReq_avg_miss_latency::.cpu.data 75964.554364                       # average ReadExReq miss latency
system.l2.ReadExReq_avg_miss_latency::total 75964.554364                       # average ReadExReq miss latency
system.l2.ReadExReq_mshr_misses::.cpu.data       110606                       # number of ReadExReq MSHR misses
system.l2.ReadExReq_mshr_misses::total         110606                       # number of ReadExReq MSHR misses
system.l2.ReadExReq_mshr_miss_latency::.cpu.data   7296075500                       # number of ReadExReq MSHR miss cycles
system.l2.ReadExReq_mshr_miss_latency::total   7296075500                       # number of ReadExReq MSHR miss cycles
system.l2.ReadExReq_mshr_miss_rate::.cpu.data     0.997259                       # mshr miss rate for ReadExReq accesses
system.l2.ReadExReq_mshr_miss_rate::total     0.997259                       # mshr miss rate for ReadExReq accesses
system.l2.ReadExReq_avg_mshr_miss_latency::.cpu.data 65964.554364                       # average ReadExReq mshr miss latency
system.l2.ReadExReq_avg_mshr_miss_latency::total 65964.554364                       # average ReadExReq mshr miss latency
system.l2.ReadCleanReq_hits::.cpu.inst             20                       # number of ReadCleanReq hits
system.l2.ReadCleanReq_hits::total                 20                       # number of ReadCleanReq hits
system.l2.ReadCleanReq_misses::.cpu.inst         3952                       # number of ReadCleanReq misses
system.l2.ReadCleanReq_misses::total             3952                       # number of ReadCleanReq misses
system.l2.ReadCleanReq_miss_latency::.cpu.inst    301724000                       # number of ReadCleanReq miss cycles
system.l2.ReadCleanReq_miss_latency::total    301724000                       # number of ReadCleanReq miss cycles
system.l2.ReadCleanReq_accesses::.cpu.inst         3972                       # number of ReadCleanReq accesses(hits+misses)
system.l2.ReadCleanReq_accesses::total           3972                       # number of ReadCleanReq accesses(hits+misses)
system.l2.ReadCleanReq_miss_rate::.cpu.inst     0.994965                       # miss rate for ReadCleanReq accesses
system.l2.ReadCleanReq_miss_rate::total      0.994965                       # miss rate for ReadCleanReq accesses
system.l2.ReadCleanReq_avg_miss_latency::.cpu.inst 76347.165992                       # average ReadCleanReq miss latency
system.l2.ReadCleanReq_avg_miss_latency::total 76347.165992                       # average ReadCleanReq miss latency
system.l2.ReadCleanReq_mshr_misses::.cpu.inst         3952                       # number of ReadCleanReq MSHR misses
system.l2.ReadCleanReq_mshr_misses::total         3952                       # number of ReadCleanReq MSHR misses
system.l2.ReadCleanReq_mshr_miss_latency::.cpu.inst    262204000                       # number of ReadCleanReq MSHR miss cycles
system.l2.ReadCleanReq_mshr_miss_latency::total    262204000                       # number of ReadCleanReq MSHR miss cycles
system.l2.ReadCleanReq_mshr_miss_rate::.cpu.inst     0.994965                       # mshr miss rate for ReadCleanReq accesses
system.l2.ReadCleanReq_mshr_miss_rate::total     0.994965                       # mshr miss rate for ReadCleanReq accesses
system.l2.ReadCleanReq_avg_mshr_miss_latency::.cpu.inst 66347.165992                       # average ReadCleanReq mshr miss latency
system.l2.ReadCleanReq_avg_mshr_miss_latency::total 66347.165992                       # average ReadCleanReq mshr miss latency
system.l2.ReadSharedReq_hits::.cpu.data          8335                       # number of ReadSharedReq hits
system.l2.ReadSharedReq_hits::total              8335                       # number of ReadSharedReq hits
system.l2.ReadSharedReq_misses::.cpu.data        74471                       # number of ReadSharedReq misses
system.l2.ReadSharedReq_misses::total           74471                       # number of ReadSharedReq misses
system.l2.ReadSharedReq_miss_latency::.cpu.data   6696632500                       # number of ReadSharedReq miss cycles
system.l2.ReadSharedReq_miss_latency::total   6696632500                       # number of ReadSharedReq miss cycles
system.l2.ReadSharedReq_accesses::.cpu.data        82806                       # number of ReadSharedReq accesses(hits+misses)
system.l2.ReadSharedReq_accesses::total         82806                       # number of ReadSharedReq accesses(hits+misses)
system.l2.ReadSharedReq_miss_rate::.cpu.data     0.899343                       # miss rate for ReadSharedReq accesses
system.l2.ReadSharedReq_miss_rate::total     0.899343                       # miss rate for ReadSharedReq accesses
system.l2.ReadSharedReq_avg_miss_latency::.cpu.data 89922.688026                       # average ReadSharedReq miss latency
system.l2.ReadSharedReq_avg_miss_latency::total 89922.688026                       # average ReadSharedReq miss latency
system.l2.ReadSharedReq_mshr_misses::.cpu.data        74471                       # number of ReadSharedReq MSHR misses
system.l2.ReadSharedReq_mshr_misses::total        74471                       # number of ReadSharedReq MSHR misses
system.l2.ReadSharedReq_mshr_miss_latency::.cpu.data   5951922500                       # number of ReadSharedReq MSHR miss cycles
system.l2.ReadSharedReq_mshr_miss_latency::total   5951922500                       # number of ReadSharedReq MSHR miss cycles
system.l2.ReadSharedReq_mshr_miss_rate::.cpu.data     0.899343                       # mshr miss rate for ReadSharedReq accesses
system.l2.ReadSharedReq_mshr_miss_rate::total     0.899343                       # mshr miss rate for ReadSharedReq accesses
system.l2.ReadSharedReq_avg_mshr_miss_latency::.cpu.data 79922.688026                       # average ReadSharedReq mshr miss latency
system.l2.ReadSharedReq_avg_mshr_miss_latency::total 79922.688026                       # average ReadSharedReq mshr miss latency
system.l2.power_state.pwrStateResidencyTicks::UNDEFINED 137473206500                       # Cumulative time (in ticks) in various power states
system.l2.tags.tagsinuse                  4085.919798                       # Cycle average of tags in use
system.l2.tags.total_refs                      362307                       # Total number of references to valid blocks.
system.l2.tags.sampled_refs                    332931                       # Sample count of references to valid blocks.
system.l2.tags.avg_refs                      1.088234                       # Average number of references to valid blocks.
system.l2.tags.warmup_cycle                     77000                       # Cycle when the warmup percentage was hit.
system.l2.tags.occ_blocks::.writebacks    1750.697106                       # Average occupied blocks per requestor
system.l2.tags.occ_blocks::.cpu.inst        28.645339                       # Average occupied blocks per requestor
system.l2.tags.occ_blocks::.cpu.data      2306.577354                       # Average occupied blocks per requestor
system.l2.tags.occ_percent::.writebacks      0.427416                       # Average percentage of cache occupancy
system.l2.tags.occ_percent::.cpu.inst        0.006993                       # Average percentage of cache occupancy
system.l2.tags.occ_percent::.cpu.data        0.563129                       # Average percentage of cache occupancy
system.l2.tags.occ_percent::total            0.997539                       # Average percentage of cache occupancy
system.l2.tags.occ_task_id_blocks::1024          4096                       # Occupied blocks per task id
system.l2.tags.age_task_id_blocks_1024::0          165                       # Occupied blocks per task id
system.l2.tags.age_task_id_blocks_1024::1         1188                       # Occupied blocks per task id
system.l2.tags.age_task_id_blocks_1024::2         2743                       # Occupied blocks per task id
system.l2.tags.occ_task_id_percent::1024            1                       # Percentage of cache occupancy per task id
system.l2.tags.tag_accesses                   1109283                       # Number of tag accesses
system.l2.tags.data_accesses                  1109283                       # Number of data accesses
system.l2.tags.power_state.pwrStateResidencyTicks::UNDEFINED 137473206500                       # Cumulative time (in ticks) in various power states
system.mem_ctrls.avgPriority_.writebacks::samples     79803.00                       # Average QoS priority value for accepted requests
system.mem_ctrls.avgPriority_.cpu.inst::samples      3952.00                       # Average QoS priority value for accepted requests
system.mem_ctrls.avgPriority_.cpu.data::samples    184993.00                       # Average QoS priority value for accepted requests
system.mem_ctrls.priorityMinLatency      0.000000018750                       # per QoS priority minimum request to response latency (s)
system.mem_ctrls.priorityMaxLatency      0.032526570750                       # per QoS priority maximum request to response latency (s)
system.mem_ctrls.numReadWriteTurnArounds         4474                       # Number of turnarounds from READ to WRITE
system.mem_ctrls.numWriteReadTurnArounds         4474                       # Number of turnarounds from WRITE to READ
system.mem_ctrls.numStayReadState              558377                       # Number of times bus staying in READ state
system.mem_ctrls.numStayWriteState              75423                       # Number of times bus staying in WRITE state
system.mem_ctrls.readReqs                      189029                       # Number of read requests accepted
system.mem_ctrls.writeReqs                     146494                       # Number of write requests accepted
system.mem_ctrls.readBursts                    189029                       # Number of controller read bursts, including those serviced by the write queue
system.mem_ctrls.writeBursts                   146494                       # Number of controller write bursts, including those merged in the write queue
system.mem_ctrls.servicedByWrQ                     84                       # Number of controller read bursts serviced by the write queue
system.mem_ctrls.mergedWrBursts                 66691                       # Number of controller write bursts merged with an existing one
system.mem_ctrls.neitherReadNorWriteReqs            0                       # Number of requests that are neither read nor write
system.mem_ctrls.avgRdQLen                       1.00                       # Average read queue length when enqueuing
system.mem_ctrls.avgWrQLen                      24.51                       # Average write queue length when enqueuing
system.mem_ctrls.numRdRetry                         0                       # Number of times read queue was full causing retry
system.mem_ctrls.numWrRetry                         0                       # Number of times write queue was full causing retry
system.mem_ctrls.readPktSize::0                     0                       # Read request sizes (log2)
system.mem_ctrls.readPktSize::1                     0                       # Read request sizes (log2)
system.mem_ctrls.readPktSize::2                     0                       # Read request sizes (log2)
system.mem_ctrls.readPktSize::3                     0                       # Read request sizes (log2)
system.mem_ctrls.readPktSize::4                     0                       # Read request sizes (log2)
system.mem_ctrls.readPktSize::5                189029                       # Read request sizes (log2)
system.mem_ctrls.writePktSize::0                    0                       # Write request sizes (log2)
system.mem_ctrls.writePktSize::1                    0                       # Write request sizes (log2)
system.mem_ctrls.writePktSize::2                    0                       # Write request sizes (log2)
system.mem_ctrls.writePktSize::3                    0                       # Write request sizes (log2)
system.mem_ctrls.writePktSize::4                    0                       # Write request sizes (log2)
system.mem_ctrls.writePktSize::5               146494                       # Write request sizes (log2)
system.mem_ctrls.rdQLenPdf::0                  188924                       # What read queue length does an incoming req see
system.mem_ctrls.rdQLenPdf::1                      21                       # What read queue length does an incoming req see
system.mem_ctrls.rdQLenPdf::2                       0                       # What read queue length does an incoming req see
system.mem_ctrls.rdQLenPdf::3                       0                       # What read queue length does an incoming req see
system.mem_ctrls.rdQLenPdf::4                       0                       # What read queue length does an incoming req see
system.mem_ctrls.rdQLenPdf::5                       0                       # What read queue length does an incoming req see
system.mem_ctrls.rdQLenPdf::6                       0                       # What read queue length does an incoming req see
system.mem_ctrls.rdQLenPdf::7                       0                       # What read queue length does an incoming req see
system.mem_ctrls.rdQLenPdf::8                       0                       # What read queue length does an incoming req see
system.mem_ctrls.rdQLenPdf::9                       0                       # What read queue length does an incoming req see
system.mem_ctrls.rdQLenPdf::10                      0                       # What read queue length does an incoming req see
system.mem_ctrls.rdQLenPdf::11                      0                       # What read queue length does an incoming req see
system.mem_ctrls.rdQLenPdf::12                      0                       # What read queue length does an incoming req see
system.mem_ctrls.rdQLenPdf::13                      0                       # What read queue length does an incoming req see
system.mem_ctrls.rdQLenPdf::14                      0                       # What read queue length does an incoming req see
system.mem_ctrls.rdQLenPdf::15                      0                       # What read queue length does an incoming req see
system.mem_ctrls.rdQLenPdf::16                      0                       # What read queue length does an incoming req see
system.mem_ctrls.rdQLenPdf::17                      0                       # What read queue length does an incoming req see
system.mem_ctrls.rdQLenPdf::18                      0                       # What read queue length does an incoming req see
system.mem_ctrls.rdQLenPdf::19                      0                       # What read queue length does an incoming req see
system.mem_ctrls.rdQLenPdf::20                      0                       # What read queue length does an incoming req see
system.mem_ctrls.rdQLenPdf::21                      0                       # What read queue length does an incoming req see
system.mem_ctrls.rdQLenPdf::22                      0                       # What read queue length does an incoming req see
system.mem_ctrls.rdQLenPdf::23                      0                       # What read queue length does an incoming req see
system.mem_ctrls.rdQLenPdf::24                      0                       # What read queue length does an incoming req see
system.mem_ctrls.rdQLenPdf::25                      0                       # What read queue length does an incoming req see
system.mem_ctrls.rdQLenPdf::26                      0                       # What read queue length does an incoming req see
system.mem_ctrls.rdQLenPdf::27                      0                       # What read queue length does an incoming req see
system.mem_ctrls.rdQLenPdf::28                      0                       # What read queue length does an incoming req see
system.mem_ctrls.rdQLenPdf::29                      0                       # What read queue length does an incoming req see
system.mem_ctrls.rdQLenPdf::30                      0                       # What read queue length does an incoming req see
system.mem_ctrls.rdQLenPdf::31                      0                       # What read queue length does an incoming req see
system.mem_ctrls.wrQLenPdf::0                       1                       # What write queue length does an incoming req see
system.mem_ctrls.wrQLenPdf::1                       1                       # What write queue length does an incoming req see
system.mem_ctrls.wrQLenPdf::2                       1                       # What write queue length does an incoming req see
system.mem_ctrls.wrQLenPdf::3                       1                       # What write queue length does an incoming req see
system.mem_ctrls.wrQLenPdf::4                       1                       # What write queue length does an incoming req see
system.mem_ctrls.wrQLenPdf::5                       1                       # What write queue length does an incoming req see
system.mem_ctrls.wrQLenPdf::6                       1                       # What write queue length does an incoming req see
system.mem_ctrls.wrQLenPdf::7                       1                       # What write queue length does an incoming req see
system.mem_ctrls.wrQLenPdf::8                       1                       # What write queue length does an incoming req see
system.mem_ctrls.wrQLenPdf::9                       1                       # What write queue length does an incoming req see
system.mem_ctrls.wrQLenPdf::10                      1                       # What write queue length does an incoming req see
system.mem_ctrls.wrQLenPdf::11                      1                       # What write queue length does an incoming req see
system.mem_ctrls.wrQLenPdf::12                      1                       # What write queue length does an incoming req see
system.mem_ctrls.wrQLenPdf::13                      1                       # What write queue length does an incoming req see
system.mem_ctrls.wrQLenPdf::14                      1                       # What write queue length does an incoming req see
system.mem_ctrls.wrQLenPdf::15                   3932                       # What write queue length does an incoming req see
system.mem_ctrls.wrQLenPdf::16                   3961                       # What write queue length does an incoming req see
system.mem_ctrls.wrQLenPdf::17                   4454                       # What write queue length does an incoming req see
system.mem_ctrls.wrQLenPdf::18                   4477                       # What write queue length does an incoming req see
system.mem_ctrls.wrQLenPdf::19                   4475                       # What write queue length does an incoming req see
system.mem_ctrls.wrQLenPdf::20                   4476                       # What write queue length does an incoming req see
system.mem_ctrls.wrQLenPdf::21                   4476                       # What write queue length does an incoming req see
system.mem_ctrls.wrQLenPdf::22                   4475                       # What write queue length does an incoming req see
system.mem_ctrls.wrQLenPdf::23                   4513                       # What write queue length does an incoming req see
system.mem_ctrls.wrQLenPdf::24                   4478                       # What write queue length does an incoming req see
system.mem_ctrls.wrQLenPdf::25                   4714                       # What write queue length does an incoming req see
system.mem_ctrls.wrQLenPdf::26                   4496                       # What write queue length does an incoming req see
system.mem_ctrls.wrQLenPdf::27                   4477                       # What write queue length does an incoming req see
system.mem_ctrls.wrQLenPdf::28                   4483                       # What write queue length does an incoming req see
system.mem_ctrls.wrQLenPdf::29                   4474                       # What write queue length does an incoming req see
system.mem_ctrls.wrQLenPdf::30                   4476                       # What write queue length does an incoming req see
system.mem_ctrls.wrQLenPdf::31                   4474                       # What write queue length does an incoming req see
system.mem_ctrls.wrQLenPdf::32                   4474                       # What write queue length does an incoming req see
system.mem_ctrls.wrQLenPdf::33                      3                       # What write queue length does an incoming req see
system.mem_ctrls.wrQLenPdf::34                      0                       # What write queue length does an incoming req see
system.mem_ctrls.wrQLenPdf::35                      0                       # What write queue length does an incoming req see
system.mem_ctrls.wrQLenPdf::36                      0                       # What write queue length does an incoming req see
system.mem_ctrls.wrQLenPdf::37                      0                       # What write queue length does an incoming req see
system.mem_ctrls.wrQLenPdf::38                      0                       # What write queue length does an incoming req see
system.mem_ctrls.wrQLenPdf::39                      0                       # What write queue length does an incoming req see
system.mem_ctrls.wrQLenPdf::40                      0                       # What write queue length does an incoming req see
system.mem_ctrls.wrQLenPdf::41                      0                       # What write queue length does an incoming req see
system.mem_ctrls.wrQLenPdf::42                      0                       # What write queue length does an incoming req see
system.mem_ctrls.wrQLenPdf::43                      0                       # What write queue length does an incoming req see
system.mem_ctrls.wrQLenPdf::44                      0                       # What write queue length does an incoming req see
system.mem_ctrls.wrQLenPdf::45                      0                       # What write queue length does an incoming req see
system.mem_ctrls.wrQLenPdf::46                      0                       # What write queue length does an incoming req see
system.mem_ctrls.wrQLenPdf::47                      0                       # What write queue length does an incoming req see
system.mem_ctrls.wrQLenPdf::48                      0                       # What write queue length does an incoming req see
system.mem_ctrls.wrQLenPdf::49                      0                       # What write queue length does an incoming req see
system.mem_ctrls.wrQLenPdf::50                      0                       # What write queue length does an incoming req see
system.mem_ctrls.wrQLenPdf::51                      0                       # What write queue length does an incoming req see
system.mem_ctrls.wrQLenPdf::52                      0                       # What write queue length does an incoming req see
system.mem_ctrls.wrQLenPdf::53                      0                       # What write queue length does an incoming req see
system.mem_ctrls.wrQLenPdf::54                      0                       # What write queue length does an incoming req see
system.mem_ctrls.wrQLenPdf::55                      0                       # What write queue length does an incoming req see
system.mem_ctrls.wrQLenPdf::56                      0                       # What write queue length does an incoming req see
system.mem_ctrls.wrQLenPdf::57                      0                       # What write queue length does an incoming req see
system.mem_ctrls.wrQLenPdf::58                      0                       # What write queue length does an incoming req see
system.mem_ctrls.wrQLenPdf::59                      0                       # What write queue length does an incoming req see
system.mem_ctrls.wrQLenPdf::60                      0                       # What write queue length does an incoming req see
system.mem_ctrls.wrQLenPdf::61                      0                       # What write queue length does an incoming req see
system.mem_ctrls.wrQLenPdf::62                      0                       # What write queue length does an incoming req see
system.mem_ctrls.wrQLenPdf::63                      0                       # What write queue length does an incoming req see
system.mem_ctrls.rdPerTurnAround::samples         4474                       # Reads before turning the bus around for writes
system.mem_ctrls.rdPerTurnAround::mean      42.227313                       # Reads before turning the bus around for writes
system.mem_ctrls.rdPerTurnAround::stdev    133.224214                       # Reads before turning the bus around for writes
system.mem_ctrls.rdPerTurnAround::0-255          4449     99.44%     99.44% # Reads before turning the bus around for writes
system.mem_ctrls.rdPerTurnAround::256-511           14      0.31%     99.75% # Reads before turning the bus around for writes
system.mem_ctrls.rdPerTurnAround::512-767            8      0.18%     99.93% # Reads before turning the bus around for writes
system.mem_ctrls.rdPerTurnAround::1280-1535            1      0.02%     99.96% # Reads before turning the bus around for writes
system.mem_ctrls.rdPerTurnAround::5376-5631            1      0.02%     99.98% # Reads before turning the bus around for writes
system.mem_ctrls.rdPerTurnAround::6400-6655            1      0.02%    100.00% # Reads before turning the bus around for writes
system.mem_ctrls.rdPerTurnAround::total          4474                       # Reads before turning the bus around for writes
system.mem_ctrls.wrPerTurnAround::samples         4474                       # Writes before turning the bus around for reads
system.mem_ctrls.wrPerTurnAround::mean      17.830800                       # Writes before turning the bus around for reads
system.mem_ctrls.wrPerTurnAround::gmean     17.815927                       # Writes before turning the bus around for reads
system.mem_ctrls.wrPerTurnAround::stdev      0.711270                       # Writes before turning the bus around for reads
system.mem_ctrls.wrPerTurnAround::16              516     11.53%     11.53% # Writes before turning the bus around for reads
system.mem_ctrls.wrPerTurnAround::17               26      0.58%     12.11% # Writes before turning the bus around for reads
system.mem_ctrls.wrPerTurnAround::18             3631     81.16%     93.27% # Writes before turning the bus around for reads
system.mem_ctrls.wrPerTurnAround::19              301      6.73%    100.00% # Writes before turning the bus around for reads
system.mem_ctrls.wrPerTurnAround::total          4474                       # Writes before turning the bus around for reads
system.mem_ctrls.bytesReadWrQ                    5376                       # Total number of bytes read from write queue
system.mem_ctrls.bytesReadSys                 6048928                       # Total read bytes from the system interface side
system.mem_ctrls.bytesWrittenSys              4687808                       # Total written bytes from the system interface side
system.mem_ctrls.avgRdBWSys                     44.00                       # Average system read bandwidth in MiByte/s
system.mem_ctrls.avgWrBWSys                     34.10                       # Average system write bandwidth in MiByte/s
system.mem_ctrls.totGap                  137473191500                       # Total gap between requests
system.mem_ctrls.avgGap                     409728.07                       # Average gap between requests
system.mem_ctrls.requestorReadBytes::.cpu.inst       126464                       # Per-requestor bytes read from memory
system.mem_ctrls.requestorReadBytes::.cpu.data      5919776                       # Per-requestor bytes read from memory
[...]
system.mem_ctrls.dram.bw_total::.cpu.data     43080860                       # Total bandwidth to/from this memory (bytes/s)
system.mem_ctrls.dram.bw_total::total        78100572                       # Total bandwidth to/from this memory (bytes/s)
system.mem_ctrls.dram.readBursts               188945                       # Number of DRAM read bursts
system.mem_ctrls.dram.writeBursts               79775                       # Number of DRAM write bursts
system.mem_ctrls.dram.perBankRdBursts::0        12383                       # Per bank write bursts
system.mem_ctrls.dram.perBankRdBursts::1        12263                       # Per bank write bursts
system.mem_ctrls.dram.perBankRdBursts::2        11858                       # Per bank write bursts
system.mem_ctrls.dram.perBankRdBursts::3        12681                       # Per bank write bursts
system.mem_ctrls.dram.perBankRdBursts::4        11628                       # Per bank write bursts
system.mem_ctrls.dram.perBankRdBursts::5        11292                       # Per bank write bursts
system.mem_ctrls.dram.perBankRdBursts::6        10836                       # Per bank write bursts
system.mem_ctrls.dram.perBankRdBursts::7        11680                       # Per bank write bursts
system.mem_ctrls.dram.perBankRdBursts::8        12161                       # Per bank write bursts
system.mem_ctrls.dram.perBankRdBursts::9        12614                       # Per bank write bursts
system.mem_ctrls.dram.perBankRdBursts::10        12372                       # Per bank write bursts
system.mem_ctrls.dram.perBankRdBursts::11        11716                       # Per bank write bursts
system.mem_ctrls.dram.perBankRdBursts::12        11286                       # Per bank write bursts
system.mem_ctrls.dram.perBankRdBursts::13        11013                       # Per bank write bursts
system.mem_ctrls.dram.perBankRdBursts::14        11372                       # Per bank write bursts
system.mem_ctrls.dram.perBankRdBursts::15        11790                       # Per bank write bursts
system.mem_ctrls.dram.perBankWrBursts::0         5146                       # Per bank write bursts
system.mem_ctrls.dram.perBankWrBursts::1         5068                       # Per bank write bursts
system.mem_ctrls.dram.perBankWrBursts::2         5021                       # Per bank write bursts
system.mem_ctrls.dram.perBankWrBursts::3         5212                       # Per bank write bursts
system.mem_ctrls.dram.perBankWrBursts::4         4870                       # Per bank write bursts
system.mem_ctrls.dram.perBankWrBursts::5         4934                       # Per bank write bursts
system.mem_ctrls.dram.perBankWrBursts::6         4866                       # Per bank write bursts
system.mem_ctrls.dram.perBankWrBursts::7         4771                       # Per bank write bursts
system.mem_ctrls.dram.perBankWrBursts::8         5291                       # Per bank write bursts
system.mem_ctrls.dram.perBankWrBursts::9         5221                       # Per bank write bursts
system.mem_ctrls.dram.perBankWrBursts::10         5016                       # Per bank write bursts
system.mem_ctrls.dram.perBankWrBursts::11         4972                       # Per bank write bursts
system.mem_ctrls.dram.perBankWrBursts::12         4971                       # Per bank write bursts
system.mem_ctrls.dram.perBankWrBursts::13         4761                       # Per bank write bursts
system.mem_ctrls.dram.perBankWrBursts::14         4874                       # Per bank write bursts
system.mem_ctrls.dram.perBankWrBursts::15         4781                       # Per bank write bursts
system.mem_ctrls.dram.totQLat              2238016500                       # Total ticks spent queuing
system.mem_ctrls.dram.totBusLat             944725000                       # Total ticks spent in databus transfers
system.mem_ctrls.dram.totMemAccLat         5780735250                       # Total ticks spent from burst creation until serviced by the DRAM
system.mem_ctrls.dram.avgQLat                11844.80                       # Average queueing delay per DRAM burst
system.mem_ctrls.dram.avgBusLat               5000.00                       # Average bus latency per DRAM burst
system.mem_ctrls.dram.avgMemAccLat           30594.80                       # Average memory access latency per DRAM burst
system.mem_ctrls.dram.readRowHits              120070                       # Number of row buffer hits during reads
system.mem_ctrls.dram.writeRowHits              69780                       # Number of row buffer hits during writes
system.mem_ctrls.dram.readRowHitRate            63.55                       # Row buffer hit rate for reads
system.mem_ctrls.dram.writeRowHitRate           87.47                       # Row buffer hit rate for writes
system.mem_ctrls.dram.bytesPerActivate::samples        78858                       # Bytes accessed per row activation
system.mem_ctrls.dram.bytesPerActivate::mean   218.047021                       # Bytes accessed per row activation
system.mem_ctrls.dram.bytesPerActivate::gmean   124.916491                       # Bytes accessed per row activation
system.mem_ctrls.dram.bytesPerActivate::stdev   276.249328                       # Bytes accessed per row activation
system.mem_ctrls.dram.bytesPerActivate::0-127        48828     61.92%     61.92% # Bytes accessed per row activation
system.mem_ctrls.dram.bytesPerActivate::128-255         6872      8.71%     70.63% # Bytes accessed per row activation
system.mem_ctrls.dram.bytesPerActivate::256-383        10202     12.94%     83.57% # Bytes accessed per row activation
system.mem_ctrls.dram.bytesPerActivate::384-511         1897      2.41%     85.98% # Bytes accessed per row activation
system.mem_ctrls.dram.bytesPerActivate::512-639         1848      2.34%     88.32% # Bytes accessed per row activation
system.mem_ctrls.dram.bytesPerActivate::640-767         2140      2.71%     91.03% # Bytes accessed per row activation
system.mem_ctrls.dram.bytesPerActivate::768-895         1170      1.48%     92.52% # Bytes accessed per row activation
system.mem_ctrls.dram.bytesPerActivate::896-1023         1134      1.44%     93.95% # Bytes accessed per row activation
system.mem_ctrls.dram.bytesPerActivate::1024-1151         4767      6.05%    100.00% # Bytes accessed per row activation
system.mem_ctrls.dram.bytesPerActivate::total        78858                       # Bytes accessed per row activation
system.mem_ctrls.dram.bytesRead              12092480                       # Total number of bytes read from DRAM
system.mem_ctrls.dram.bytesWritten            5105600                       # Total number of bytes written to DRAM
system.mem_ctrls.dram.avgRdBW               87.962450                       # Average DRAM read bandwidth in MiBytes/s
system.mem_ctrls.dram.avgWrBW               37.138873                       # Average DRAM write bandwidth in MiBytes/s
system.mem_ctrls.dram.peakBW                 12800.00                       # Theoretical peak bandwidth in MiByte/s
system.mem_ctrls.dram.busUtil                    0.98                       # Data bus utilization in percentage
system.mem_ctrls.dram.busUtilRead                0.69                       # Data bus utilization in percentage for reads
system.mem_ctrls.dram.busUtilWrite               0.29                       # Data bus utilization in percentage for writes
system.mem_ctrls.dram.pageHitRate               70.65                       # Row buffer hit rate, read and write combined
system.mem_ctrls.dram.power_state.pwrStateResidencyTicks::UNDEFINED 137473206500                       # Cumulative time (in ticks) in various power states
system.mem_ctrls.dram.rank0.actEnergy       284479020                       # Energy for activate commands per rank (pJ)
system.mem_ctrls.dram.rank0.preEnergy       151181415                       # Energy for precharge commands per rank (pJ)
system.mem_ctrls.dram.rank0.readEnergy      675593940                       # Energy for read commands per rank (pJ)
system.mem_ctrls.dram.rank0.writeEnergy     208215360                       # Energy for write commands per rank (pJ)
system.mem_ctrls.dram.rank0.refreshEnergy 10851469200.000002                       # Energy for refresh commands per rank (pJ)
system.mem_ctrls.dram.rank0.actBackEnergy  24338912790                       # Energy for active background per rank (pJ)
system.mem_ctrls.dram.rank0.preBackEnergy  32293785120                       # Energy for precharge background per rank (pJ)
system.mem_ctrls.dram.rank0.actPowerDownEnergy            0                       # Energy for active power-down per rank (pJ)
system.mem_ctrls.dram.rank0.prePowerDownEnergy            0                       # Energy for precharge power-down per rank (pJ)
system.mem_ctrls.dram.rank0.selfRefreshEnergy            0                       # Energy for self refresh per rank (pJ)
system.mem_ctrls.dram.rank0.totalEnergy   68803636845                       # Total energy per rank (pJ)
system.mem_ctrls.dram.rank0.averagePower   500.487612                       # Core power per rank (mW)
system.mem_ctrls.dram.rank0.totalIdleTime            0                       # Total Idle time Per DRAM Rank
system.mem_ctrls.dram.rank0.pwrStateTime::IDLE  83554930250                       # Time in different power states
system.mem_ctrls.dram.rank0.pwrStateTime::REF   4590300000                       # Time in different power states
system.mem_ctrls.dram.rank0.pwrStateTime::SREF            0                       # Time in different power states
system.mem_ctrls.dram.rank0.pwrStateTime::PRE_PDN            0                       # Time in different power states
system.mem_ctrls.dram.rank0.pwrStateTime::ACT  49327976250                       # Time in different power states
system.mem_ctrls.dram.rank0.pwrStateTime::ACT_PDN            0                       # Time in different power states
system.mem_ctrls.dram.rank1.actEnergy       278652780                       # Energy for activate commands per rank (pJ)
system.mem_ctrls.dram.rank1.preEnergy       148084695                       # Energy for precharge commands per rank (pJ)
system.mem_ctrls.dram.rank1.readEnergy      673473360                       # Energy for read commands per rank (pJ)
system.mem_ctrls.dram.rank1.writeEnergy     208210140                       # Energy for write commands per rank (pJ)
system.mem_ctrls.dram.rank1.refreshEnergy 10851469200.000002                       # Energy for refresh commands per rank (pJ)
system.mem_ctrls.dram.rank1.actBackEnergy  24889467240                       # Energy for active background per rank (pJ)
system.mem_ctrls.dram.rank1.preBackEnergy  31830160320                       # Energy for precharge background per rank (pJ)
system.mem_ctrls.dram.rank1.actPowerDownEnergy            0                       # Energy for active power-down per rank (pJ)
system.mem_ctrls.dram.rank1.prePowerDownEnergy            0                       # Energy for precharge power-down per rank (pJ)
system.mem_ctrls.dram.rank1.selfRefreshEnergy            0                       # Energy for self refresh per rank (pJ)
system.mem_ctrls.dram.rank1.totalEnergy   68879517735                       # Total energy per rank (pJ)
system.mem_ctrls.dram.rank1.averagePower   501.039581                       # Core power per rank (mW)
system.mem_ctrls.dram.rank1.totalIdleTime            0                       # Total Idle time Per DRAM Rank
system.mem_ctrls.dram.rank1.pwrStateTime::IDLE  82289906000                       # Time in different power states
system.mem_ctrls.dram.rank1.pwrStateTime::REF   4590300000                       # Time in different power states
system.mem_ctrls.dram.rank1.pwrStateTime::SREF            0                       # Time in different power states
system.mem_ctrls.dram.rank1.pwrStateTime::PRE_PDN            0                       # Time in different power states
system.mem_ctrls.dram.rank1.pwrStateTime::ACT  50593000500                       # Time in different power states
system.mem_ctrls.dram.rank1.pwrStateTime::ACT_PDN            0                       # Time in different power states
system.mem_ctrls.power_state.pwrStateResidencyTicks::UNDEFINED 137473206500                       # Cumulative time (in ticks) in various power states
system.membus.trans_dist::ReadResp              78423                       # Transaction distribution
system.membus.trans_dist::WritebackDirty       146494                       # Transaction distribution
system.membus.trans_dist::CleanEvict            33259                       # Transaction distribution
system.membus.trans_dist::ReadExReq            110606                       # Transaction distribution
system.membus.trans_dist::ReadExResp           110606                       # Transaction distribution
system.membus.trans_dist::ReadSharedReq         78423                       # Transaction distribution
system.membus.pkt_count_system.l2.mem_side_port::system.mem_ctrls.port       557811                       # Packet count per connected requestor and responder (bytes)
system.membus.pkt_count_system.l2.mem_side_port::total       557811                       # Packet count per connected requestor and responder (bytes)
system.membus.pkt_count::total                 557811                       # Packet count per connected requestor and responder (bytes)
system.membus.pkt_size_system.l2.mem_side_port::system.mem_ctrls.port     10736736                       # Cumulative packet size per connected requestor and responder (bytes)
system.membus.pkt_size_system.l2.mem_side_port::total     10736736                       # Cumulative packet size per connected requestor and responder (bytes)
system.membus.pkt_size::total                10736736                       # Cumulative packet size per connected requestor and responder (bytes)
system.membus.snoops                                0                       # Total snoops (count)
system.membus.snoopTraffic                          0                       # Total snoop traffic (bytes)
system.membus.snoop_fanout::samples            189029                       # Request fanout histogram
system.membus.snoop_fanout::mean                    0                       # Request fanout histogram
system.membus.snoop_fanout::stdev                   0                       # Request fanout histogram
system.membus.snoop_fanout::underflows              0      0.00%      0.00% # Request fanout histogram
system.membus.snoop_fanout::0                  189029    100.00%    100.00% # Request fanout histogram
system.membus.snoop_fanout::1                       0      0.00%    100.00% # Request fanout histogram
system.membus.snoop_fanout::overflows               0      0.00%    100.00% # Request fanout histogram
system.membus.snoop_fanout::min_value               0                       # Request fanout histogram
system.membus.snoop_fanout::max_value               0                       # Request fanout histogram
system.membus.snoop_fanout::total              189029                       # Request fanout histogram
system.membus.power_state.pwrStateResidencyTicks::UNDEFINED 137473206500                       # Cumulative time (in ticks) in various power states
system.membus.reqLayer2.occupancy           661809500                       # Layer occupancy (ticks)
system.membus.reqLayer2.utilization               0.5                       # Layer utilization (%)
system.membus.respLayer1.occupancy          641600750                       # Layer occupancy (ticks)
system.membus.respLayer1.utilization              0.5                       # Layer utilization (%)
system.tol2bus.trans_dist::ReadResp             86778                       # Transaction distribution
system.tol2bus.trans_dist::WritebackDirty       303321                       # Transaction distribution
system.tol2bus.trans_dist::WritebackClean          868                       # Transaction distribution
system.tol2bus.trans_dist::CleanEvict          215134                       # Transaction distribution
system.tol2bus.trans_dist::ReadExReq           110910                       # Transaction distribution
system.tol2bus.trans_dist::ReadExResp          110910                       # Transaction distribution
system.tol2bus.trans_dist::ReadCleanReq          3972                       # Transaction distribution
system.tol2bus.trans_dist::ReadSharedReq        82806                       # Transaction distribution
system.tol2bus.pkt_count_system.cpu.icache.mem_side_port::system.l2.cpu_side_port         8812                       # Packet count per connected requestor and responder (bytes)
system.tol2bus.pkt_count_system.cpu.dcache.mem_side_port::system.l2.cpu_side_port       577052                       # Packet count per connected requestor and responder (bytes)
system.tol2bus.pkt_count::total                585864                       # Packet count per connected requestor and responder (bytes)
system.tol2bus.pkt_size_system.cpu.icache.mem_side_port::system.l2.cpu_side_port       154880                       # Cumulative packet size per connected requestor and responder (bytes)
system.tol2bus.pkt_size_system.cpu.dcache.mem_side_port::system.l2.cpu_side_port     11217376                       # Cumulative packet size per connected requestor and responder (bytes)
system.tol2bus.pkt_size::total               11372256                       # Cumulative packet size per connected requestor and responder (bytes)
system.tol2bus.snoops                          328835                       # Total snoops (count)
system.tol2bus.snoopTraffic                   4687808                       # Total snoop traffic (bytes)
system.tol2bus.snoop_fanout::samples           526523                       # Request fanout histogram
system.tol2bus.snoop_fanout::mean            0.332276                       # Request fanout histogram
system.tol2bus.snoop_fanout::stdev           0.471030                       # Request fanout histogram
system.tol2bus.snoop_fanout::underflows             0      0.00%      0.00% # Request fanout histogram
system.tol2bus.snoop_fanout::0                 351572     66.77%     66.77% # Request fanout histogram
system.tol2bus.snoop_fanout::1                 174951     33.23%    100.00% # Request fanout histogram
system.tol2bus.snoop_fanout::2                      0      0.00%    100.00% # Request fanout histogram
system.tol2bus.snoop_fanout::3                      0      0.00%    100.00% # Request fanout histogram
system.tol2bus.snoop_fanout::4                      0      0.00%    100.00% # Request fanout histogram
system.tol2bus.snoop_fanout::overflows              0      0.00%    100.00% # Request fanout histogram
system.tol2bus.snoop_fanout::min_value              0                       # Request fanout histogram
system.tol2bus.snoop_fanout::max_value              1                       # Request fanout histogram
system.tol2bus.snoop_fanout::total             526523                       # Request fanout histogram
system.tol2bus.power_state.pwrStateResidencyTicks::UNDEFINED 137473206500                       # Cumulative time (in ticks) in various power states
system.tol2bus.reqLayer0.occupancy          272935500                       # Layer occupancy (ticks)
system.tol2bus.reqLayer0.utilization              0.2                       # Layer utilization (%)
system.tol2bus.respLayer0.occupancy           3972000                       # Layer occupancy (ticks)
system.tol2bus.respLayer0.utilization             0.0                       # Layer utilization (%)
system.tol2bus.respLayer1.occupancy         193716000                       # Layer occupancy (ticks)
system.tol2bus.respLayer1.utilization             0.1                       # Layer utilization (%)
system.voltage_domain.voltage                       1                       # Voltage in Volts

---------- End Simulation Statistics   ----------
