
---------- Begin Simulation Statistics ----------
final_tick                               137488684500                       # Number of ticks from beginning of simulation (restored from checkpoints and never reset)
host_inst_rate                                 403451                       # Simulator instruction rate (inst/s)
host_mem_usage                                 712664                       # Number of bytes of host memory used
host_op_rate                                   617177                       # Simulator op (including micro ops) rate (op/s)
host_seconds                                   157.24                       # Real time elapsed on the host
host_tick_rate                              874410963                       # Simulator tick rate (ticks/s)
sim_freq                                 1000000000000                       # Frequency of simulated ticks
sim_insts                                    63436878                       # Number of instructions simulated
sim_ops                                      97042210                       # Number of ops (including micro ops) simulated
sim_seconds                                  0.137489                       # Number of seconds simulated
sim_ticks                                137488684500                       # Number of ticks simulated
system.cpu.Branches                           7714393                       # Number of branches fetched
system.cpu.committedInsts                    63436878                       # Number of instructions committed
system.cpu.committedOps                      97042210                       # Number of ops (including micro ops) committed
system.cpu.idle_fraction                     0.000000                       # Percentage of idle cycles
system.cpu.not_idle_fraction                 1.000000                       # Percentage of non-idle cycles
system.cpu.numCycles                        274977369                       # number of cpu cycles simulated
system.cpu.numWorkItemsCompleted                    0                       # number of work items this cpu completed
system.cpu.numWorkItemsStarted                      0                       # number of work items this cpu started
system.cpu.num_busy_cycles               274977368.998000                       # Number of busy cycles
system.cpu.num_cc_register_reads             29902185                       # number of times the CC registers were read
system.cpu.num_cc_register_writes            27168373                       # number of times the CC registers were written
system.cpu.num_conditional_control_insts      4234783                       # number of instructions that are conditional controls
system.cpu.num_fp_alu_accesses                  85206                       # Number of float alu accesses
system.cpu.num_fp_insts                         85206                       # number of float instructions
system.cpu.num_fp_register_reads               119500                       # number of times the floating registers were read
system.cpu.num_fp_register_writes               63458                       # number of times the floating registers were written
system.cpu.num_func_calls                     1924148                       # number of times a function call or return occured
system.cpu.num_idle_cycles                   0.002000                       # Number of idle cycles
system.cpu.num_int_alu_accesses              95088667                       # Number of integer alu accesses
system.cpu.num_int_insts                     95088667                       # number of integer instructions
system.cpu.num_int_register_reads           214307208                       # number of times the integer registers were read
system.cpu.num_int_register_writes           77409627                       # number of times the integer registers were written
system.cpu.num_load_insts                    26073751                       # Number of load instructions
system.cpu.num_mem_refs                      36099173                       # number of memory refs
system.cpu.num_store_insts                   10025422                       # Number of store instructions
system.cpu.num_vec_alu_accesses                     0                       # Number of vector alu accesses
system.cpu.num_vec_insts                            0                       # number of vector instructions
system.cpu.num_vec_register_reads                   0                       # number of times the vector registers were read
system.cpu.num_vec_register_writes                  0                       # number of times the vector registers were written
system.cpu.op_class::No_OpClass                976243      1.01%      1.01% # Class of executed instruction
system.cpu.op_class::IntAlu                  59879192     61.70%     62.71% # Class of executed instruction
system.cpu.op_class::IntMult                       74      0.00%     62.71% # Class of executed instruction
system.cpu.op_class::IntDiv                     36240      0.04%     62.75% # Class of executed instruction
system.cpu.op_class::FloatAdd                    5590      0.01%     62.75% # Class of executed instruction
system.cpu.op_class::FloatCmp                       0      0.00%     62.75% # Class of executed instruction
system.cpu.op_class::FloatCvt                    1232      0.00%     62.75% # Class of executed instruction
system.cpu.op_class::FloatMult                      0      0.00%     62.75% # Class of executed instruction
system.cpu.op_class::FloatMultAcc                   0      0.00%     62.75% # Class of executed instruction
system.cpu.op_class::FloatDiv                       0      0.00%     62.75% # Class of executed instruction
system.cpu.op_class::FloatMisc                      0      0.00%     62.75% # Class of executed instruction
system.cpu.op_class::FloatSqrt                      0      0.00%     62.75% # Class of executed instruction
system.cpu.op_class::SimdAdd                     6716      0.01%     62.76% # Class of executed instruction
system.cpu.op_class::SimdAddAcc                     0      0.00%     62.76% # Class of executed instruction
system.cpu.op_class::SimdAlu                    12162      0.01%     62.77% # Class of executed instruction
system.cpu.op_class::SimdCmp                        6      0.00%     62.77% # Class of executed instruction
system.cpu.op_class::SimdCvt                    13804      0.01%     62.79% # Class of executed instruction
system.cpu.op_class::SimdMisc                   12230      0.01%     62.80% # Class of executed instruction
system.cpu.op_class::SimdMult                       0      0.00%     62.80% # Class of executed instruction
system.cpu.op_class::SimdMultAcc                    0      0.00%     62.80% # Class of executed instruction
system.cpu.op_class::SimdShift                    436      0.00%     62.80% # Class of executed instruction
system.cpu.op_class::SimdShiftAcc                   0      0.00%     62.80% # Class of executed instruction
system.cpu.op_class::SimdDiv                        0      0.00%     62.80% # Class of executed instruction
system.cpu.op_class::SimdSqrt                       0      0.00%     62.80% # Class of executed instruction
system.cpu.op_class::SimdFloatAdd                  10      0.00%     62.80% # Class of executed instruction
system.cpu.op_class::SimdFloatAlu                   0      0.00%     62.80% # Class of executed instruction
system.cpu.op_class::SimdFloatCmp                   0      0.00%     62.80% # Class of executed instruction
system.cpu.op_class::SimdFloatCvt                  30      0.00%     62.80% # Class of executed instruction
system.cpu.op_class::SimdFloatDiv                   0      0.00%     62.80% # Class of executed instruction
system.cpu.op_class::SimdFloatMisc                  0      0.00%     62.80% # Class of executed instruction
system.cpu.op_class::SimdFloatMult                 12      0.00%     62.80% # Class of executed instruction
system.cpu.op_class::SimdFloatMultAcc               0      0.00%     62.80% # Class of executed instruction
system.cpu.op_class::SimdFloatSqrt                  0      0.00%     62.80% # Class of executed instruction
system.cpu.op_class::SimdReduceAdd                  0      0.00%     62.80% # Class of executed instruction
system.cpu.op_class::SimdReduceAlu                  0      0.00%     62.80% # Class of executed instruction
system.cpu.op_class::SimdReduceCmp                  0      0.00%     62.80% # Class of executed instruction
system.cpu.op_class::SimdFloatReduceAdd             0      0.00%     62.80% # Class of executed instruction
system.cpu.op_class::SimdFloatReduceCmp             0      0.00%     62.80% # Class of executed instruction
system.cpu.op_class::SimdAes                        0      0.00%     62.80% # Class of executed instruction
system.cpu.op_class::SimdAesMix                     0      0.00%     62.80% # Class of executed instruction
system.cpu.op_class::SimdSha1Hash                   0      0.00%     62.80% # Class of executed instruction
system.cpu.op_class::SimdSha1Hash2                  0      0.00%     62.80% # Class of executed instruction
system.cpu.op_class::SimdSha256Hash                 0      0.00%     62.80% # Class of executed instruction
system.cpu.op_class::SimdSha256Hash2                0      0.00%     62.80% # Class of executed instruction
system.cpu.op_class::SimdShaSigma2                  0      0.00%     62.80% # Class of executed instruction
system.cpu.op_class::SimdShaSigma3                  0      0.00%     62.80% # Class of executed instruction
system.cpu.op_class::SimdPredAlu                    0      0.00%     62.80% # Class of executed instruction
system.cpu.op_class::MemRead                 26056914     26.85%     89.65% # Class of executed instruction
system.cpu.op_class::MemWrite                10011984     10.32%     99.97% # Class of executed instruction
system.cpu.op_class::FloatMemRead               16837      0.02%     99.99% # Class of executed instruction
system.cpu.op_class::FloatMemWrite              13438      0.01%    100.00% # Class of executed instruction
system.cpu.op_class::IprAccess                      0      0.00%    100.00% # Class of executed instruction
system.cpu.op_class::InstPrefetch                   0      0.00%    100.00% # Class of executed instruction
system.cpu.op_class::total                   97043150                       # Class of executed instruction
system.cpu.workload.numSyscalls                   100                       # Number of system calls
system.membus.snoop_filter.hit_multi_requests            0                       # Number of requests hitting in the snoop filter with multiple (>1) holders of the requested data.
system.membus.snoop_filter.hit_multi_snoops            0                       # Number of snoops hitting in the snoop filter with multiple (>1) holders of the requested data.
system.membus.snoop_filter.hit_single_requests       179593                       # Number of requests hitting in the snoop filter with a single holder of the requested data.
system.membus.snoop_filter.hit_single_snoops            0                       # Number of snoops hitting in the snoop filter with a single holder of the requested data.
system.membus.snoop_filter.tot_requests        368603                       # Total number of requests made to the snoop filter.
system.membus.snoop_filter.tot_snoops               0                       # Total number of snoops made to the snoop filter.
system.tol2bus.snoop_filter.hit_multi_requests            0                       # Number of requests hitting in the snoop filter with multiple (>1) holders of the requested data.
system.tol2bus.snoop_filter.hit_multi_snoops            0                       # Number of snoops hitting in the snoop filter with multiple (>1) holders of the requested data.
system.tol2bus.snoop_filter.hit_single_requests       190454                       # Number of requests hitting in the snoop filter with a single holder of the requested data.
system.tol2bus.snoop_filter.hit_single_snoops       175892                       # Number of snoops hitting in the snoop filter with a single holder of the requested data.
system.tol2bus.snoop_filter.tot_requests       388109                       # Total number of requests made to the snoop filter.
system.tol2bus.snoop_filter.tot_snoops         175892                       # Total number of snoops made to the snoop filter.
system.clk_domain.clock                          1000                       # Clock period in ticks
system.cpu.dcache.demand_hits::.cpu.data     35937793                       # number of demand (read+write) hits
system.cpu.dcache.demand_hits::total         35937793                       # number of demand (read+write) hits
system.cpu.dcache.overall_hits::.cpu.data     35937793                       # number of overall hits
system.cpu.dcache.overall_hits::total        35937793                       # number of overall hits
system.cpu.dcache.demand_misses::.cpu.data       193681                       # number of demand (read+write) misses
system.cpu.dcache.demand_misses::total         193681                       # number of demand (read+write) misses
system.cpu.dcache.overall_misses::.cpu.data       193681                       # number of overall misses
system.cpu.dcache.overall_misses::total        193681                       # number of overall misses
system.cpu.dcache.demand_miss_latency::.cpu.data  15685994000                       # number of demand (read+write) miss cycles
system.cpu.dcache.demand_miss_latency::total  15685994000                       # number of demand (read+write) miss cycles
system.cpu.dcache.overall_miss_latency::.cpu.data  15685994000                       # number of overall miss cycles
system.cpu.dcache.overall_miss_latency::total  15685994000                       # number of overall miss cycles
system.cpu.dcache.demand_accesses::.cpu.data     36131474                       # number of demand (read+write) accesses
system.cpu.dcache.demand_accesses::total     36131474                       # number of demand (read+write) accesses
system.cpu.dcache.overall_accesses::.cpu.data     36131474                       # number of overall (read+write) accesses
system.cpu.dcache.overall_accesses::total     36131474                       # number of overall (read+write) accesses
system.cpu.dcache.demand_miss_rate::.cpu.data     0.005360                       # miss rate for demand accesses
system.cpu.dcache.demand_miss_rate::total     0.005360                       # miss rate for demand accesses
system.cpu.dcache.overall_miss_rate::.cpu.data     0.005360                       # miss rate for overall accesses
system.cpu.dcache.overall_miss_rate::total     0.005360                       # miss rate for overall accesses
system.cpu.dcache.demand_avg_miss_latency::.cpu.data 80988.811499                       # average overall miss latency
system.cpu.dcache.demand_avg_miss_latency::total 80988.811499                       # average overall miss latency
system.cpu.dcache.overall_avg_miss_latency::.cpu.data 80988.811499                       # average overall miss latency
system.cpu.dcache.overall_avg_miss_latency::total 80988.811499                       # average overall miss latency
system.cpu.dcache.blocked_cycles::no_mshrs            0                       # number of cycles access was blocked
system.cpu.dcache.blocked_cycles::no_targets            0                       # number of cycles access was blocked
system.cpu.dcache.blocked::no_mshrs                 0                       # number of cycles access was blocked
system.cpu.dcache.blocked::no_targets               0                       # number of cycles access was blocked
system.cpu.dcache.avg_blocked_cycles::no_mshrs          nan                       # average number of cycles each access was blocked
system.cpu.dcache.avg_blocked_cycles::no_targets          nan                       # average number of cycles each access was blocked
system.cpu.dcache.writebacks::.writebacks       156797                       # number of writebacks
system.cpu.dcache.writebacks::total            156797                       # number of writebacks
system.cpu.dcache.demand_mshr_misses::.cpu.data       193681                       # number of demand (read+write) MSHR misses
system.cpu.dcache.demand_mshr_misses::total       193681                       # number of demand (read+write) MSHR misses
system.cpu.dcache.overall_mshr_misses::.cpu.data       193681                       # number of overall MSHR misses
system.cpu.dcache.overall_mshr_misses::total       193681                       # number of overall MSHR misses
system.cpu.dcache.demand_mshr_miss_latency::.cpu.data  15492313000                       # number of demand (read+write) MSHR miss cycles
system.cpu.dcache.demand_mshr_miss_latency::total  15492313000                       # number of demand (read+write) MSHR miss cycles
system.cpu.dcache.overall_mshr_miss_latency::.cpu.data  15492313000                       # number of overall MSHR miss cycles
system.cpu.dcache.overall_mshr_miss_latency::total  15492313000                       # number of overall MSHR miss cycles
system.cpu.dcache.demand_mshr_miss_rate::.cpu.data     0.005360                       # mshr miss rate for demand accesses
system.cpu.dcache.demand_mshr_miss_rate::total     0.005360                       # mshr miss rate for demand accesses
system.cpu.dcache.overall_mshr_miss_rate::.cpu.data     0.005360                       # mshr miss rate for overall accesses
system.cpu.dcache.overall_mshr_miss_rate::total     0.005360                       # mshr miss rate for overall accesses
system.cpu.dcache.demand_avg_mshr_miss_latency::.cpu.data 79988.811499                       # average overall mshr miss latency
system.cpu.dcache.demand_avg_mshr_miss_latency::total 79988.811499                       # average overall mshr miss latency
system.cpu.dcache.overall_avg_mshr_miss_latency::.cpu.data 79988.811499                       # average overall mshr miss latency
system.cpu.dcache.overall_avg_mshr_miss_latency::total 79988.811499                       # average overall mshr miss latency
system.cpu.dcache.replacements                 189585                       # number of replacements
system.cpu.dcache.ReadReq_hits::.cpu.data     25991105                       # number of ReadReq hits
system.cpu.dcache.ReadReq_hits::total        25991105                       # number of ReadReq hits
system.cpu.dcache.ReadReq_misses::.cpu.data        82766                       # number of ReadReq misses
system.cpu.dcache.ReadReq_misses::total         82766                       # number of ReadReq misses
system.cpu.dcache.ReadReq_miss_latency::.cpu.data   6993734500                       # number of ReadReq miss cycles
system.cpu.dcache.ReadReq_miss_latency::total   6993734500                       # number of ReadReq miss cycles
system.cpu.dcache.ReadReq_accesses::.cpu.data     26073871                       # number of ReadReq accesses(hits+misses)
system.cpu.dcache.ReadReq_accesses::total     26073871                       # number of ReadReq accesses(hits+misses)
system.cpu.dcache.ReadReq_miss_rate::.cpu.data     0.003174                       # miss rate for ReadReq accesses
system.cpu.dcache.ReadReq_miss_rate::total     0.003174                       # miss rate for ReadReq accesses
system.cpu.dcache.ReadReq_avg_miss_latency::.cpu.data 84500.090617                       # average ReadReq miss latency
system.cpu.dcache.ReadReq_avg_miss_latency::total 84500.090617                       # average ReadReq miss latency
system.cpu.dcache.ReadReq_mshr_misses::.cpu.data        82766                       # number of ReadReq MSHR misses
system.cpu.dcache.ReadReq_mshr_misses::total        82766                       # number of ReadReq MSHR misses
system.cpu.dcache.ReadReq_mshr_miss_latency::.cpu.data   6910968500                       # number of ReadReq MSHR miss cycles
system.cpu.dcache.ReadReq_mshr_miss_latency::total   6910968500                       # number of ReadReq MSHR miss cycles
system.cpu.dcache.ReadReq_mshr_miss_rate::.cpu.data     0.003174                       # mshr miss rate for ReadReq accesses
system.cpu.dcache.ReadReq_mshr_miss_rate::total     0.003174                       # mshr miss rate for ReadReq accesses
system.cpu.dcache.ReadReq_avg_mshr_miss_latency::.cpu.data 83500.090617                       # average ReadReq mshr miss latency
system.cpu.dcache.ReadReq_avg_mshr_miss_latency::total 83500.090617                       # average ReadReq mshr miss latency
system.cpu.dcache.WriteReq_hits::.cpu.data      9946688                       # number of WriteReq hits
system.cpu.dcache.WriteReq_hits::total        9946688                       # number of WriteReq hits
system.cpu.dcache.WriteReq_misses::.cpu.data       110915                       # number of WriteReq misses
system.cpu.dcache.WriteReq_misses::total       110915                       # number of WriteReq misses
system.cpu.dcache.WriteReq_miss_latency::.cpu.data   8692259500                       # number of WriteReq miss cycles
system.cpu.dcache.WriteReq_miss_latency::total   8692259500                       # number of WriteReq miss cycles
system.cpu.dcache.WriteReq_accesses::.cpu.data     10057603                       # number of WriteReq accesses(hits+misses)
system.cpu.dcache.WriteReq_accesses::total     10057603                       # number of WriteReq accesses(hits+misses)
system.cpu.dcache.WriteReq_miss_rate::.cpu.data     0.011028                       # miss rate for WriteReq accesses
system.cpu.dcache.WriteReq_miss_rate::total     0.011028                       # miss rate for WriteReq accesses
system.cpu.dcache.WriteReq_avg_miss_latency::.cpu.data 78368.656178                       # average WriteReq miss latency
system.cpu.dcache.WriteReq_avg_miss_latency::total 78368.656178                       # average WriteReq miss latency
system.cpu.dcache.WriteReq_mshr_misses::.cpu.data       110915                       # number of WriteReq MSHR misses
system.cpu.dcache.WriteReq_mshr_misses::total       110915                       # number of WriteReq MSHR misses
system.cpu.dcache.WriteReq_mshr_miss_latency::.cpu.data   8581344500                       # number of WriteReq MSHR miss cycles
system.cpu.dcache.WriteReq_mshr_miss_latency::total   8581344500                       # number of WriteReq MSHR miss cycles
system.cpu.dcache.WriteReq_mshr_miss_rate::.cpu.data     0.011028                       # mshr miss rate for WriteReq accesses
system.cpu.dcache.WriteReq_mshr_miss_rate::total     0.011028                       # mshr miss rate for WriteReq accesses
system.cpu.dcache.WriteReq_avg_mshr_miss_latency::.cpu.data 77368.656178                       # average WriteReq mshr miss latency
system.cpu.dcache.WriteReq_avg_mshr_miss_latency::total 77368.656178                       # average WriteReq mshr miss latency
system.cpu.dcache.power_state.pwrStateResidencyTicks::UNDEFINED 137488684500                       # Cumulative time (in ticks) in various power states
system.cpu.dcache.tags.tagsinuse          4085.879512                       # Cycle average of tags in use
system.cpu.dcache.tags.total_refs            36131474                       # Total number of references to valid blocks.
system.cpu.dcache.tags.sampled_refs            193681                       # Sample count of references to valid blocks.
system.cpu.dcache.tags.avg_refs            186.551463                       # Average number of references to valid blocks.
system.cpu.dcache.tags.warmup_cycle            174500                       # Cycle when the warmup percentage was hit.
system.cpu.dcache.tags.occ_blocks::.cpu.data  4085.879512                       # Average occupied blocks per requestor
system.cpu.dcache.tags.occ_percent::.cpu.data     0.997529                       # Average percentage of cache occupancy
system.cpu.dcache.tags.occ_percent::total     0.997529                       # Average percentage of cache occupancy
system.cpu.dcache.tags.occ_task_id_blocks::1024         4096                       # Occupied blocks per task id
system.cpu.dcache.tags.age_task_id_blocks_1024::0           35                       # Occupied blocks per task id
system.cpu.dcache.tags.age_task_id_blocks_1024::1          415                       # Occupied blocks per task id
system.cpu.dcache.tags.age_task_id_blocks_1024::2         3643                       # Occupied blocks per task id
system.cpu.dcache.tags.age_task_id_blocks_1024::3            3                       # Occupied blocks per task id
system.cpu.dcache.tags.occ_task_id_percent::1024            1                       # Percentage of cache occupancy per task id
system.cpu.dcache.tags.tag_accesses        9249851025                       # Number of tag accesses
system.cpu.dcache.tags.data_accesses       9249851025                       # Number of data accesses
system.cpu.dcache.tags.power_state.pwrStateResidencyTicks::UNDEFINED 137488684500                       # Cumulative time (in ticks) in various power states
system.cpu.dtb.rdAccesses                    26074093                       # TLB accesses on read requests
system.cpu.dtb.wrAccesses                    10058351                       # TLB accesses on write requests
system.cpu.dtb.rdMisses                          1987                       # TLB misses on read requests
system.cpu.dtb.wrMisses                          1560                       # TLB misses on write requests
system.cpu.dtb.walker.power_state.pwrStateResidencyTicks::UNDEFINED 137488684500                       # Cumulative time (in ticks) in various power states
system.cpu.dtb_walker_cache.blocked_cycles::no_mshrs            0                       # number of cycles access was blocked
system.cpu.dtb_walker_cache.blocked_cycles::no_targets            0                       # number of cycles access was blocked
system.cpu.dtb_walker_cache.blocked::no_mshrs            0                       # number of cycles access was blocked
system.cpu.dtb_walker_cache.blocked::no_targets            0                       # number of cycles access was blocked
system.cpu.dtb_walker_cache.avg_blocked_cycles::no_mshrs          nan                       # average number of cycles each access was blocked
system.cpu.dtb_walker_cache.avg_blocked_cycles::no_targets          nan                       # average number of cycles each access was blocked
system.cpu.dtb_walker_cache.replacements            0                       # number of replacements
system.cpu.dtb_walker_cache.power_state.pwrStateResidencyTicks::UNDEFINED 137488684500                       # Cumulative time (in ticks) in various power states
system.cpu.dtb_walker_cache.tags.tagsinuse            0                       # Cycle average of tags in use
system.cpu.dtb_walker_cache.tags.total_refs            0                       # Total number of references to valid blocks.
system.cpu.dtb_walker_cache.tags.sampled_refs            0                       # Sample count of references to valid blocks.
system.cpu.dtb_walker_cache.tags.avg_refs          nan                       # Average number of references to valid blocks.
system.cpu.dtb_walker_cache.tags.warmup_cycle            0                       # Cycle when the warmup percentage was hit.
system.cpu.dtb_walker_cache.tags.tag_accesses            0                       # Number of tag accesses
system.cpu.dtb_walker_cache.tags.data_accesses            0                       # Number of data accesses
system.cpu.dtb_walker_cache.tags.power_state.pwrStateResidencyTicks::UNDEFINED 137488684500                       # Cumulative time (in ticks) in various power states
system.cpu.icache.demand_hits::.cpu.inst     85584520                       # number of demand (read+write) hits
system.cpu.icache.demand_hits::total         85584520                       # number of demand (read+write) hits
system.cpu.icache.overall_hits::.cpu.inst     85584520                       # number of overall hits
system.cpu.icache.overall_hits::total        85584520                       # number of overall hits
system.cpu.icache.demand_misses::.cpu.inst         3974                       # number of demand (read+write) misses
system.cpu.icache.demand_misses::total           3974                       # number of demand (read+write) misses
system.cpu.icache.overall_misses::.cpu.inst         3974                       # number of overall misses
system.cpu.icache.overall_misses::total          3974                       # number of overall misses
system.cpu.icache.demand_miss_latency::.cpu.inst    315026000                       # number of demand (read+write) miss cycles
system.cpu.icache.demand_miss_latency::total    315026000                       # number of demand (read+write) miss cycles
system.cpu.icache.overall_miss_latency::.cpu.inst    315026000                       # number of overall miss cycles
system.cpu.icache.overall_miss_latency::total    315026000                       # number of overall miss cycles
system.cpu.icache.demand_accesses::.cpu.inst     85588494                       # number of demand (read+write) accesses
system.cpu.icache.demand_accesses::total     85588494                       # number of demand (read+write) accesses
system.cpu.icache.overall_accesses::.cpu.inst     85588494                       # number of overall (read+write) accesses
system.cpu.icache.overall_accesses::total     85588494                       # number of overall (read+write) accesses
system.cpu.icache.demand_miss_rate::.cpu.inst     0.000046                       # miss rate for demand accesses
system.cpu.icache.demand_miss_rate::total     0.000046                       # miss rate for demand accesses
system.cpu.icache.overall_miss_rate::.cpu.inst     0.000046                       # miss rate for overall accesses
system.cpu.icache.overall_miss_rate::total     0.000046                       # miss rate for overall accesses
system.cpu.icache.demand_avg_miss_latency::.cpu.inst 79271.766482                       # average overall miss latency
system.cpu.icache.demand_avg_miss_latency::total 79271.766482                       # average overall miss latency
system.cpu.icache.overall_avg_miss_latency::.cpu.inst 79271.766482                       # average overall miss latency
system.cpu.icache.overall_avg_miss_latency::total 79271.766482                       # average overall miss latency
system.cpu.icache.blocked_cycles::no_mshrs            0                       # number of cycles access was blocked
system.cpu.icache.blocked_cycles::no_targets            0                       # number of cycles access was blocked
system.cpu.icache.blocked::no_mshrs                 0                       # number of cycles access was blocked
system.cpu.icache.blocked::no_targets               0                       # number of cycles access was blocked
system.cpu.icache.avg_blocked_cycles::no_mshrs          nan                       # average number of cycles each access was blocked
system.cpu.icache.avg_blocked_cycles::no_targets          nan                       # average number of cycles each access was blocked
system.cpu.icache.writebacks::.writebacks          869                       # number of writebacks
system.cpu.icache.writebacks::total               869                       # number of writebacks
system.cpu.icache.demand_mshr_misses::.cpu.inst         3974                       # number of demand (read+write) MSHR misses
system.cpu.icache.demand_mshr_misses::total         3974                       # number of demand (read+write) MSHR misses
system.cpu.icache.overall_mshr_misses::.cpu.inst         3974                       # number of overall MSHR misses
system.cpu.icache.overall_mshr_misses::total         3974                       # number of overall MSHR misses
system.cpu.icache.demand_mshr_miss_latency::.cpu.inst    311052000                       # number of demand (read+write) MSHR miss cycles
system.cpu.icache.demand_mshr_miss_latency::total    311052000                       # number of demand (read+write) MSHR miss cycles
system.cpu.icache.overall_mshr_miss_latency::.cpu.inst    311052000                       # number of overall MSHR miss cycles
system.cpu.icache.overall_mshr_miss_latency::total    311052000                       # number of overall MSHR miss cycles
system.cpu.icache.demand_mshr_miss_rate::.cpu.inst     0.000046                       # mshr miss rate for demand accesses
system.cpu.icache.demand_mshr_miss_rate::total     0.000046                       # mshr miss rate for demand accesses
system.cpu.icache.overall_mshr_miss_rate::.cpu.inst     0.000046                       # mshr miss rate for overall accesses
system.cpu.icache.overall_mshr_miss_rate::total     0.000046                       # mshr miss rate for overall accesses
system.cpu.icache.demand_avg_mshr_miss_latency::.cpu.inst 78271.766482                       # average overall mshr miss latency
system.cpu.icache.demand_avg_mshr_miss_latency::total 78271.766482                       # average overall mshr miss latency
system.cpu.icache.overall_avg_mshr_miss_latency::.cpu.inst 78271.766482                       # average overall mshr miss latency
system.cpu.icache.overall_avg_mshr_miss_latency::total 78271.766482                       # average overall mshr miss latency
system.cpu.icache.replacements                    869                       # number of replacements
system.cpu.icache.ReadReq_hits::.cpu.inst     85584520                       # number of ReadReq hits
system.cpu.icache.ReadReq_hits::total        85584520                       # number of ReadReq hits
system.cpu.icache.ReadReq_misses::.cpu.inst         3974                       # number of ReadReq misses
system.cpu.icache.ReadReq_misses::total          3974                       # number of ReadReq misses
system.cpu.icache.ReadReq_miss_latency::.cpu.inst    315026000                       # number of ReadReq miss cycles
system.cpu.icache.ReadReq_miss_latency::total    315026000                       # number of ReadReq miss cycles
system.cpu.icache.ReadReq_accesses::.cpu.inst     85588494                       # number of ReadReq accesses(hits+misses)
system.cpu.icache.ReadReq_accesses::total     85588494                       # number of ReadReq accesses(hits+misses)
system.cpu.icache.ReadReq_miss_rate::.cpu.inst     0.000046                       # miss rate for ReadReq accesses
system.cpu.icache.ReadReq_miss_rate::total     0.000046                       # miss rate for ReadReq accesses
system.cpu.icache.ReadReq_avg_miss_latency::.cpu.inst 79271.766482                       # average ReadReq miss latency
system.cpu.icache.ReadReq_avg_miss_latency::total 79271.766482                       # average ReadReq miss latency
system.cpu.icache.ReadReq_mshr_misses::.cpu.inst         3974                       # number of ReadReq MSHR misses
system.cpu.icache.ReadReq_mshr_misses::total         3974                       # number of ReadReq MSHR misses
system.cpu.icache.ReadReq_mshr_miss_latency::.cpu.inst    311052000                       # number of ReadReq MSHR miss cycles
system.cpu.icache.ReadReq_mshr_miss_latency::total    311052000                       # number of ReadReq MSHR miss cycles
system.cpu.icache.ReadReq_mshr_miss_rate::.cpu.inst     0.000046                       # mshr miss rate for ReadReq accesses
system.cpu.icache.ReadReq_mshr_miss_rate::total     0.000046                       # mshr miss rate for ReadReq accesses
system.cpu.icache.ReadReq_avg_mshr_miss_latency::.cpu.inst 78271.766482                       # average ReadReq mshr miss latency
system.cpu.icache.ReadReq_avg_mshr_miss_latency::total 78271.766482                       # average ReadReq mshr miss latency
system.cpu.icache.power_state.pwrStateResidencyTicks::UNDEFINED 137488684500                       # Cumulative time (in ticks) in various power states
system.cpu.icache.tags.tagsinuse          2682.019633                       # Cycle average of tags in use
system.cpu.icache.tags.total_refs            85588494                       # Total number of references to valid blocks.
system.cpu.icache.tags.sampled_refs              3974                       # Sample count of references to valid blocks.
system.cpu.icache.tags.avg_refs          21537.114746                       # Average number of references to valid blocks.
system.cpu.icache.tags.warmup_cycle             87500                       # Cycle when the warmup percentage was hit.
system.cpu.icache.tags.occ_blocks::.cpu.inst  2682.019633                       # Average occupied blocks per requestor
system.cpu.icache.tags.occ_percent::.cpu.inst     0.654790                       # Average percentage of cache occupancy
system.cpu.icache.tags.occ_percent::total     0.654790                       # Average percentage of cache occupancy
system.cpu.icache.tags.occ_task_id_blocks::1024         3105                       # Occupied blocks per task id
system.cpu.icache.tags.age_task_id_blocks_1024::0           59                       # Occupied blocks per task id
system.cpu.icache.tags.age_task_id_blocks_1024::1          359                       # Occupied blocks per task id
system.cpu.icache.tags.age_task_id_blocks_1024::2           30                       # Occupied blocks per task id
system.cpu.icache.tags.age_task_id_blocks_1024::3          212                       # Occupied blocks per task id
system.cpu.icache.tags.age_task_id_blocks_1024::4         2445                       # Occupied blocks per task id
system.cpu.icache.tags.occ_task_id_percent::1024     0.758057                       # Percentage of cache occupancy per task id
system.cpu.icache.tags.tag_accesses         171180962                       # Number of tag accesses
system.cpu.icache.tags.data_accesses        171180962                       # Number of data accesses
system.cpu.icache.tags.power_state.pwrStateResidencyTicks::UNDEFINED 137488684500                       # Cumulative time (in ticks) in various power states
system.cpu.interrupts.clk_domain.clock           8000                       # Clock period in ticks
system.cpu.itb.rdAccesses                           0                       # TLB accesses on read requests
system.cpu.itb.wrAccesses                    85588623                       # TLB accesses on write requests
system.cpu.itb.rdMisses                             0                       # TLB misses on read requests
system.cpu.itb.wrMisses                           542                       # TLB misses on write requests
system.cpu.itb.walker.power_state.pwrStateResidencyTicks::UNDEFINED 137488684500                       # Cumulative time (in ticks) in various power states
system.cpu.itb_walker_cache.blocked_cycles::no_mshrs            0                       # number of cycles access was blocked
system.cpu.itb_walker_cache.blocked_cycles::no_targets            0                       # number of cycles access was blocked
system.cpu.itb_walker_cache.blocked::no_mshrs            0                       # number of cycles access was blocked
system.cpu.itb_walker_cache.blocked::no_targets            0                       # number of cycles access was blocked
system.cpu.itb_walker_cache.avg_blocked_cycles::no_mshrs          nan                       # average number of cycles each access was blocked
system.cpu.itb_walker_cache.avg_blocked_cycles::no_targets          nan                       # average number of cycles each access was blocked
system.cpu.itb_walker_cache.replacements            0                       # number of replacements
system.cpu.itb_walker_cache.power_state.pwrStateResidencyTicks::UNDEFINED 137488684500                       # Cumulative time (in ticks) in various power states
system.cpu.itb_walker_cache.tags.tagsinuse            0                       # Cycle average of tags in use
system.cpu.itb_walker_cache.tags.total_refs            0                       # Total number of references to valid blocks.
system.cpu.itb_walker_cache.tags.sampled_refs            0                       # Sample count of references to valid blocks.
system.cpu.itb_walker_cache.tags.avg_refs          nan                       # Average number of references to valid blocks.
system.cpu.itb_walker_cache.tags.warmup_cycle            0                       # Cycle when the warmup percentage was hit.
system.cpu.itb_walker_cache.tags.tag_accesses            0                       # Number of tag accesses
system.cpu.itb_walker_cache.tags.data_accesses            0                       # Number of data accesses
system.cpu.itb_walker_cache.tags.power_state.pwrStateResidencyTicks::UNDEFINED 137488684500                       # Cumulative time (in ticks) in various power states
system.cpu.power_state.pwrStateResidencyTicks::ON 137488684500                       # Cumulative time (in ticks) in various power states
system.cpu.thread_0.numInsts                        0                       # Number of Instructions committed
system.cpu.thread_0.numOps                          0                       # Number of Ops committed
system.cpu.thread_0.numMemRefs                      0                       # Number of Memory References
system.cpu_clk_domain.clock                       500                       # Clock period in ticks
system.cpu_voltage_domain.voltage                   1                       # Voltage in Volts
system.l2.demand_hits::.cpu.inst                   20                       # number of demand (read+write) hits
system.l2.demand_hits::.cpu.data                 8625                       # number of demand (read+write) hits
system.l2.demand_hits::total                     8645                       # number of demand (read+write) hits
system.l2.overall_hits::.cpu.inst                  20                       # number of overall hits
system.l2.overall_hits::.cpu.data                8625                       # number of overall hits
system.l2.overall_hits::total                    8645                       # number of overall hits
system.l2.demand_misses::.cpu.inst               3954                       # number of demand (read+write) misses
system.l2.demand_misses::.cpu.data             185056                       # number of demand (read+write) misses
system.l2.demand_misses::total                 189010                       # number of demand (read+write) misses
system.l2.overall_misses::.cpu.inst              3954                       # number of overall misses
system.l2.overall_misses::.cpu.data            185056                       # number of overall misses
system.l2.overall_misses::total                189010                       # number of overall misses
system.l2.demand_miss_latency::.cpu.inst    304881000                       # number of demand (read+write) miss cycles
system.l2.demand_miss_latency::.cpu.data  15111218500                       # number of demand (read+write) miss cycles
system.l2.demand_miss_latency::total      15416099500                       # number of demand (read+write) miss cycles
system.l2.overall_miss_latency::.cpu.inst    304881000                       # number of overall miss cycles
system.l2.overall_miss_latency::.cpu.data  15111218500                       # number of overall miss cycles
system.l2.overall_miss_latency::total     15416099500                       # number of overall miss cycles
system.l2.demand_accesses::.cpu.inst             3974                       # number of demand (read+write) accesses
system.l2.demand_accesses::.cpu.data           193681                       # number of demand (read+write) accesses
system.l2.demand_accesses::total               197655                       # number of demand (read+write) accesses
system.l2.overall_accesses::.cpu.inst            3974                       # number of overall (read+write) accesses
system.l2.overall_accesses::.cpu.data          193681                       # number of overall (read+write) accesses
system.l2.overall_accesses::total              197655                       # number of overall (read+write) accesses
system.l2.demand_miss_rate::.cpu.inst        0.994967                       # miss rate for demand accesses
system.l2.demand_miss_rate::.cpu.data        0.955468                       # miss rate for demand accesses
system.l2.demand_miss_rate::total            0.956262                       # miss rate for demand accesses
system.l2.overall_miss_rate::.cpu.inst       0.994967                       # miss rate for overall accesses
system.l2.overall_miss_rate::.cpu.data       0.955468                       # miss rate for overall accesses
system.l2.overall_miss_rate::total           0.956262                       # miss rate for overall accesses
system.l2.demand_avg_miss_latency::.cpu.inst 77106.980273                       # average overall miss latency
system.l2.demand_avg_miss_latency::.cpu.data 81657.544203                       # average overall miss latency
system.l2.demand_avg_miss_latency::total 81562.348553                       # average overall miss latency
system.l2.overall_avg_miss_latency::.cpu.inst 77106.980273                       # average overall miss latency
system.l2.overall_avg_miss_latency::.cpu.data 81657.544203                       # average overall miss latency
system.l2.overall_avg_miss_latency::total 81562.348553                       # average overall miss latency
system.l2.blocked_cycles::no_mshrs                  0                       # number of cycles access was blocked
system.l2.blocked_cycles::no_targets                0                       # number of cycles access was blocked
system.l2.blocked::no_mshrs                         0                       # number of cycles access was blocked
system.l2.blocked::no_targets                       0                       # number of cycles access was blocked
system.l2.avg_blocked_cycles::no_mshrs            nan                       # average number of cycles each access was blocked
system.l2.avg_blocked_cycles::no_targets          nan                       # average number of cycles each access was blocked
system.l2.writebacks::.writebacks              146347                       # number of writebacks
system.l2.writebacks::total                    146347                       # number of writebacks
system.l2.demand_mshr_misses::.cpu.inst          3954                       # number of demand (read+write) MSHR misses
system.l2.demand_mshr_misses::.cpu.data        185056                       # number of demand (read+write) MSHR misses
system.l2.demand_mshr_misses::total            189010                       # number of demand (read+write) MSHR misses
system.l2.overall_mshr_misses::.cpu.inst         3954                       # number of overall MSHR misses
system.l2.overall_mshr_misses::.cpu.data       185056                       # number of overall MSHR misses
system.l2.overall_mshr_misses::total           189010                       # number of overall MSHR misses
system.l2.demand_mshr_miss_latency::.cpu.inst    265341000                       # number of demand (read+write) MSHR miss cycles
system.l2.demand_mshr_miss_latency::.cpu.data  13260658500                       # number of demand (read+write) MSHR miss cycles
system.l2.demand_mshr_miss_latency::total  13525999500                       # number of demand (read+write) MSHR miss cycles
system.l2.overall_mshr_miss_latency::.cpu.inst    265341000                       # number of overall MSHR miss cycles
system.l2.overall_mshr_miss_latency::.cpu.data  13260658500                       # number of overall MSHR miss cycles
system.l2.overall_mshr_miss_latency::total  13525999500                       # number of overall MSHR miss cycles
system.l2.demand_mshr_miss_rate::.cpu.inst     0.994967                       # mshr miss rate for demand accesses
system.l2.demand_mshr_miss_rate::.cpu.data     0.955468                       # mshr miss rate for demand accesses
system.l2.demand_mshr_miss_rate::total       0.956262                       # mshr miss rate for demand accesses
system.l2.overall_mshr_miss_rate::.cpu.inst     0.994967                       # mshr miss rate for overall accesses
system.l2.overall_mshr_miss_rate::.cpu.data     0.955468                       # mshr miss rate for overall accesses
system.l2.overall_mshr_miss_rate::total      0.956262                       # mshr miss rate for overall accesses
system.l2.demand_avg_mshr_miss_latency::.cpu.inst 67106.980273                       # average overall mshr miss latency
system.l2.demand_avg_mshr_miss_latency::.cpu.data 71657.544203                       # average overall mshr miss latency
system.l2.demand_avg_mshr_miss_latency::total 71562.348553                       # average overall mshr miss latency
system.l2.overall_avg_mshr_miss_latency::.cpu.inst 67106.980273                       # average overall mshr miss latency
system.l2.overall_avg_mshr_miss_latency::.cpu.data 71657.544203                       # average overall mshr miss latency
system.l2.overall_avg_mshr_miss_latency::total 71562.348553                       # average overall mshr miss latency
system.l2.replacements                         329261                       # number of replacements
system.l2.WritebackDirty_hits::.writebacks       156797                       # number of WritebackDirty hits
system.l2.WritebackDirty_hits::total           156797                       # number of WritebackDirty hits
system.l2.WritebackDirty_accesses::.writebacks       156797                       # number of WritebackDirty accesses(hits+misses)
system.l2.WritebackDirty_accesses::total       156797                       # number of WritebackDirty accesses(hits+misses)
system.l2.WritebackClean_hits::.writebacks          869                       # number of WritebackClean hits
system.l2.WritebackClean_hits::total              869                       # number of WritebackClean hits
system.l2.WritebackClean_accesses::.writebacks          869                       # number of WritebackClean accesses(hits+misses)
system.l2.WritebackClean_accesses::total          869                       # number of WritebackClean accesses(hits+misses)
system.l2.CleanEvict_mshr_misses::.writebacks        26224                       # number of CleanEvict MSHR misses
system.l2.CleanEvict_mshr_misses::total         26224                       # number of CleanEvict MSHR misses
system.l2.CleanEvict_mshr_miss_rate::.writebacks          inf                       # mshr miss rate for CleanEvict accesses
system.l2.CleanEvict_mshr_miss_rate::total          inf                       # mshr miss rate for CleanEvict accesses
system.l2.ReadExReq_hits::.cpu.data               313                       # number of ReadExReq hits
system.l2.ReadExReq_hits::total                   313                       # number of ReadExReq hits
system.l2.ReadExReq_misses::.cpu.data          110602                       # number of ReadExReq misses
system.l2.ReadExReq_misses::total              110602                       # number of ReadExReq misses
system.l2.ReadExReq_miss_latency::.cpu.data   8411684500                       # number of ReadExReq miss cycles
system.l2.ReadExReq_miss_latency::total    8411684500                       # number of ReadExReq miss cycles
system.l2.ReadExReq_accesses::.cpu.data        110915                       # number of ReadExReq accesses(hits+misses)
system.l2.ReadExReq_accesses::total            110915                       # number of ReadExReq accesses(hits+misses)
system.l2.ReadExReq_miss_rate::.cpu.data     0.997178                       # miss rate for ReadExReq accesses
system.l2.ReadExReq_miss_rate::total         0.997178                       # miss rate for ReadExReq accesses
system.l2.ReadExReq_avg_miss_latency::.cpu.data 76053.638271                       # average ReadExReq miss latency
system.l2.ReadExReq_avg_miss_latency::total 76053.638271                       # average ReadExReq miss latency
system.l2.ReadExReq_mshr_misses::.cpu.data       110602                       # number of ReadExReq MSHR misses
system.l2.ReadExReq_mshr_misses::total         110602                       # number of ReadExReq MSHR misses
system.l2.ReadExReq_mshr_miss_latency::.cpu.data   7305664500                       # number of ReadExReq MSHR miss cycles
system.l2.ReadExReq_mshr_miss_latency::total   7305664500                       # number of ReadExReq MSHR miss cycles
system.l2.ReadExReq_mshr_miss_rate::.cpu.data     0.997178                       # mshr miss rate for ReadExReq accesses
system.l2.ReadExReq_mshr_miss_rate::total     0.997178                       # mshr miss rate for ReadExReq accesses
system.l2.ReadExReq_avg_mshr_miss_latency::.cpu.data 66053.638271                       # average ReadExReq mshr miss latency
system.l2.ReadExReq_avg_mshr_miss_latency::total 66053.638271                       # average ReadExReq mshr miss latency
system.l2.ReadCleanReq_hits::.cpu.inst             20                       # number of ReadCleanReq hits
system.l2.ReadCleanReq_hits::total                 20                       # number of ReadCleanReq hits
system.l2.ReadCleanReq_misses::.cpu.inst         3954                       # number of ReadCleanReq misses
system.l2.ReadCleanReq_misses::total             3954                       # number of ReadCleanReq misses
system.l2.ReadCleanReq_miss_latency::.cpu.inst    304881000                       # number of ReadCleanReq miss cycles
system.l2.ReadCleanReq_miss_latency::total    304881000                       # number of ReadCleanReq miss cycles
system.l2.ReadCleanReq_accesses::.cpu.inst         3974                       # number of ReadCleanReq accesses(hits+misses)
system.l2.ReadCleanReq_accesses::total           3974                       # number of ReadCleanReq accesses(hits+misses)
system.l2.ReadCleanReq_miss_rate::.cpu.inst     0.994967                       # miss rate for ReadCleanReq accesses
system.l2.ReadCleanReq_miss_rate::total      0.994967                       # miss rate for ReadCleanReq accesses
system.l2.ReadCleanReq_avg_miss_latency::.cpu.inst 77106.980273                       # average ReadCleanReq miss latency
system.l2.ReadCleanReq_avg_miss_latency::total 77106.980273                       # average ReadCleanReq miss latency
system.l2.ReadCleanReq_mshr_misses::.cpu.inst         3954                       # number of ReadCleanReq MSHR misses
system.l2.ReadCleanReq_mshr_misses::total         3954                       # number of ReadCleanReq MSHR misses
system.l2.ReadCleanReq_mshr_miss_latency::.cpu.inst    265341000                       # number of ReadCleanReq MSHR miss cycles
system.l2.ReadCleanReq_mshr_miss_latency::total    265341000                       # number of ReadCleanReq MSHR miss cycles
system.l2.ReadCleanReq_mshr_miss_rate::.cpu.inst     0.994967                       # mshr miss rate for ReadCleanReq accesses
system.l2.ReadCleanReq_mshr_miss_rate::total     0.994967                       # mshr miss rate for ReadCleanReq accesses
system.l2.ReadCleanReq_avg_mshr_miss_latency::.cpu.inst 67106.980273                       # average ReadCleanReq mshr miss latency
system.l2.ReadCleanReq_avg_mshr_miss_latency::total 67106.980273                       # average ReadCleanReq mshr miss latency
system.l2.ReadSharedReq_hits::.cpu.data          8312                       # number of ReadSharedReq hits
system.l2.ReadSharedReq_hits::total              8312                       # number of ReadSharedReq hits
system.l2.ReadSharedReq_misses::.cpu.data        74454                       # number of ReadSharedReq misses
system.l2.ReadSharedReq_misses::total           74454                       # number of ReadSharedReq misses
system.l2.ReadSharedReq_miss_latency::.cpu.data   6699534000                       # number of ReadSharedReq miss cycles
system.l2.ReadSharedReq_miss_latency::total   6699534000                       # number of ReadSharedReq miss cycles
system.l2.ReadSharedReq_accesses::.cpu.data        82766                       # number of ReadSharedReq accesses(hits+misses)
system.l2.ReadSharedReq_accesses::total         82766                       # number of ReadSharedReq accesses(hits+misses)
system.l2.ReadSharedReq_miss_rate::.cpu.data     0.899572                       # miss rate for ReadSharedReq accesses
system.l2.ReadSharedReq_miss_rate::total     0.899572                       # miss rate for ReadSharedReq accesses
system.l2.ReadSharedReq_avg_miss_latency::.cpu.data 89982.190346                       # average ReadSharedReq miss latency
system.l2.ReadSharedReq_avg_miss_latency::total 89982.190346                       # average ReadSharedReq miss latency
system.l2.ReadSharedReq_mshr_misses::.cpu.data        74454                       # number of ReadSharedReq MSHR misses
system.l2.ReadSharedReq_mshr_misses::total        74454                       # number of ReadSharedReq MSHR misses
system.l2.ReadSharedReq_mshr_miss_latency::.cpu.data   5954994000                       # number of ReadSharedReq MSHR miss cycles
system.l2.ReadSharedReq_mshr_miss_latency::total   5954994000                       # number of ReadSharedReq MSHR miss cycles
system.l2.ReadSharedReq_mshr_miss_rate::.cpu.data     0.899572                       # mshr miss rate for ReadSharedReq accesses
system.l2.ReadSharedReq_mshr_miss_rate::total     0.899572                       # mshr miss rate for ReadSharedReq accesses
system.l2.ReadSharedReq_avg_mshr_miss_latency::.cpu.data 79982.190346                       # average ReadSharedReq mshr miss latency
system.l2.ReadSharedReq_avg_mshr_miss_latency::total 79982.190346                       # average ReadSharedReq mshr miss latency
system.l2.power_state.pwrStateResidencyTicks::UNDEFINED 137488684500                       # Cumulative time (in ticks) in various power states
system.l2.tags.tagsinuse                  4085.920720                       # Cycle average of tags in use
system.l2.tags.total_refs                      361885                       # Total number of references to valid blocks.
system.l2.tags.sampled_refs                    333357                       # Sample count of references to valid blocks.
system.l2.tags.avg_refs                      1.085578                       # Average number of references to valid blocks.
system.l2.tags.warmup_cycle                     77000                       # Cycle when the warmup percentage was hit.
system.l2.tags.occ_blocks::.writebacks    1755.620435                       # Average occupied blocks per requestor
system.l2.tags.occ_blocks::.cpu.inst        28.497715                       # Average occupied blocks per requestor
system.l2.tags.occ_blocks::.cpu.data      2301.802571                       # Average occupied blocks per requestor
system.l2.tags.occ_percent::.writebacks      0.428618                       # Average percentage of cache occupancy
system.l2.tags.occ_percent::.cpu.inst        0.006957                       # Average percentage of cache occupancy
system.l2.tags.occ_percent::.cpu.data        0.561964                       # Average percentage of cache occupancy
system.l2.tags.occ_percent::total            0.997539                       # Average percentage of cache occupancy
system.l2.tags.occ_task_id_blocks::1024          4096                       # Occupied blocks per task id
system.l2.tags.age_task_id_blocks_1024::0          165                       # Occupied blocks per task id
system.l2.tags.age_task_id_blocks_1024::1         1196                       # Occupied blocks per task id
system.l2.tags.age_task_id_blocks_1024::2         2735                       # Occupied blocks per task id
system.l2.tags.occ_task_id_percent::1024            1                       # Percentage of cache occupancy per task id
system.l2.tags.tag_accesses                   1109575                       # Number of tag accesses
system.l2.tags.data_accesses                  1109575                       # Number of data accesses
system.l2.tags.power_state.pwrStateResidencyTicks::UNDEFINED 137488684500                       # Cumulative time (in ticks) in various power states
system.mem_ctrls.avgPriority_.writebacks::samples     80064.00                       # Average QoS priority value for accepted requests
system.mem_ctrls.avgPriority_.cpu.inst::samples      3954.00                       # Average QoS priority value for accepted requests
system.mem_ctrls.avgPriority_.cpu.data::samples    184968.00                       # Average QoS priority value for accepted requests
system.mem_ctrls.priorityMinLatency      0.000000018750                       # per QoS priority minimum request to response latency (s)
system.mem_ctrls.priorityMaxLatency      0.032530261250                       # per QoS priority maximum request to response latency (s)
system.mem_ctrls.numReadWriteTurnArounds         4492                       # Number of turnarounds from READ to WRITE
system.mem_ctrls.numWriteReadTurnArounds         4492                       # Number of turnarounds from WRITE to READ
system.mem_ctrls.numStayReadState              558108                       # Number of times bus staying in READ state
system.mem_ctrls.numStayWriteState              75667                       # Number of times bus staying in WRITE state
system.mem_ctrls.readReqs                      189010                       # Number of read requests accepted
system.mem_ctrls.writeReqs                     146347                       # Number of write requests accepted
system.mem_ctrls.readBursts                    189010                       # Number of controller read bursts, including those serviced by the write queue
system.mem_ctrls.writeBursts                   146347                       # Number of controller write bursts, including those merged in the write queue
system.mem_ctrls.servicedByWrQ                     88                       # Number of controller read bursts serviced by the write queue
system.mem_ctrls.mergedWrBursts                 66283                       # Number of controller write bursts merged with an existing one
system.mem_ctrls.neitherReadNorWriteReqs            0                       # Number of requests that are neither read nor write
system.mem_ctrls.avgRdQLen                       1.00                       # Average read queue length when enqueuing
system.mem_ctrls.avgWrQLen                      23.44                       # Average write queue length when enqueuing
system.mem_ctrls.numRdRetry                         0                       # Number of times read queue was full causing retry
system.mem_ctrls.numWrRetry                         0                       # Number of times write queue was full causing retry
system.mem_ctrls.readPktSize::0                     0                       # Read request sizes (log2)
system.mem_ctrls.readPktSize::1                     0                       # Read request sizes (log2)
system.mem_ctrls.readPktSize::2                     0                       # Read request sizes (log2)
system.mem_ctrls.readPktSize::3                     0                       # Read request sizes (log2)
system.mem_ctrls.readPktSize::4                     0                       # Read request sizes (log2)
system.mem_ctrls.readPktSize::5                189010                       # Read request sizes (log2)
system.mem_ctrls.writePktSize::0                    0                       # Write request sizes (log2)
system.mem_ctrls.writePktSize::1                    0                       # Write request sizes (log2)
system.mem_ctrls.writePktSize::2                    0                       # Write request sizes (log2)
system.mem_ctrls.writePktSize::3                    0                       # Write request sizes (log2)
system.mem_ctrls.writePktSize::4                    0                       # Write request sizes (log2)
system.mem_ctrls.writePktSize::5               146347                       # Write request sizes (log2)
system.mem_ctrls.rdQLenPdf::0                  188902                       # What read queue length does an incoming req see
system.mem_ctrls.rdQLenPdf::1                      20                       # What read queue length does an incoming req see
system.mem_ctrls.rdQLenPdf::2                       0                       # What read queue length does an incoming req see
system.mem_ctrls.rdQLenPdf::3                       0                       # What read queue length does an incoming req see
system.mem_ctrls.rdQLenPdf::4                       0                       # What read queue length does an incoming req see
system.mem_ctrls.rdQLenPdf::5                       0                       # What read queue length does an incoming req see
system.mem_ctrls.rdQLenPdf::6                       0                       # What read queue length does an incoming req see
system.mem_ctrls.rdQLenPdf::7                       0                       # What read queue length does an incoming req see
system.mem_ctrls.rdQLenPdf::8                       0                       # What read queue length does an incoming req see
system.mem_ctrls.rdQLenPdf::9                       0                       # What read queue length does an incoming req see
system.mem_ctrls.rdQLenPdf::10                      0                       # What read queue length does an incoming req see
system.mem_ctrls.rdQLenPdf::11                      0                       # What read queue length does an incoming req see
system.mem_ctrls.rdQLenPdf::12                      0                       # What read queue length does an incoming req see
system.mem_ctrls.rdQLenPdf::13                      0                       # What read queue length does an incoming req see
system.mem_ctrls.rdQLenPdf::14                      0                       # What read queue length does an incoming req see
system.mem_ctrls.rdQLenPdf::15                      0                       # What read queue length does an incoming req see
system.mem_ctrls.rdQLenPdf::16                      0                       # What read queue length does an incoming req see
system.mem_ctrls.rdQLenPdf::17                      0                       # What read queue length does an incoming req see
system.mem_ctrls.rdQLenPdf::18                      0                       # What read queue length does an incoming req see
system.mem_ctrls.rdQLenPdf::19                      0                       # What read queue length does an incoming req see
system.mem_ctrls.rdQLenPdf::20                      0                       # What read queue length does an incoming req see
system.mem_ctrls.rdQLenPdf::21                      0                       # What read queue length does an incoming req see
system.mem_ctrls.rdQLenPdf::22                      0                       # What read queue length does an incoming req see
system.mem_ctrls.rdQLenPdf::23                      0                       # What read queue length does an incoming req see
system.mem_ctrls.rdQLenPdf::24                      0                       # What read queue length does an incoming req see
system.mem_ctrls.rdQLenPdf::25                      0                       # What read queue length does an incoming req see
system.mem_ctrls.rdQLenPdf::26                      0                       # What read queue length does an incoming req see
system.mem_ctrls.rdQLenPdf::27                      0                       # What read queue length does an incoming req see
system.mem_ctrls.rdQLenPdf::28                      0                       # What read queue length does an incoming req see
system.mem_ctrls.rdQLenPdf::29                      0                       # What read queue length does an incoming req see
system.mem_ctrls.rdQLenPdf::30                      0                       # What read queue length does an incoming req see
system.mem_ctrls.rdQLenPdf::31                      0                       # What read queue length does an incoming req see
system.mem_ctrls.wrQLenPdf::0                       1                       # What write queue length does an incoming req see
system.mem_ctrls.wrQLenPdf::1                       1                       # What write queue length does an incoming req see
system.mem_ctrls.wrQLenPdf::2                       1                       # What write queue length does an incoming req see
system.mem_ctrls.wrQLenPdf::3                       1                       # What write queue length does an incoming req see
system.mem_ctrls.wrQLenPdf::4                       1                       # What write queue length does an incoming req see
system.mem_ctrls.wrQLenPdf::5                       1                       # What write queue length does an incoming req see
system.mem_ctrls.wrQLenPdf::6                       1                       # What write queue length does an incoming req see
system.mem_ctrls.wrQLenPdf::7                       1                       # What write queue length does an incoming req see
system.mem_ctrls.wrQLenPdf::8                       1                       # What write queue length does an incoming req see
system.mem_ctrls.wrQLenPdf::9                       1                       # What write queue length does an incoming req see
system.mem_ctrls.wrQLenPdf::10                      1                       # What write queue length does an incoming req see
system.mem_ctrls.wrQLenPdf::11                      1                       # What write queue length does an incoming req see
system.mem_ctrls.wrQLenPdf::12                      1                       # What write queue length does an incoming req see
system.mem_ctrls.wrQLenPdf::13                      1                       # What write queue length does an incoming req see
system.mem_ctrls.wrQLenPdf::14                      1                       # What write queue length does an incoming req see
system.mem_ctrls.wrQLenPdf::15                   3882                       # What write queue length does an incoming req see
system.mem_ctrls.wrQLenPdf::16                   3919                       # What write queue length does an incoming req see
system.mem_ctrls.wrQLenPdf::17                   4467                       # What write queue length does an incoming req see
system.mem_ctrls.wrQLenPdf::18                   4493                       # What write queue length does an incoming req see
system.mem_ctrls.wrQLenPdf::19                   4494                       # What write queue length does an incoming req see
system.mem_ctrls.wrQLenPdf::20                   4494                       # What write queue length does an incoming req see
system.mem_ctrls.wrQLenPdf::21                   4494                       # What write queue length does an incoming req see
system.mem_ctrls.wrQLenPdf::22                   4493                       # What write queue length does an incoming req see
system.mem_ctrls.wrQLenPdf::23                   4540                       # What write queue length does an incoming req see
system.mem_ctrls.wrQLenPdf::24                   4496                       # What write queue length does an incoming req see
system.mem_ctrls.wrQLenPdf::25                   4783                       # What write queue length does an incoming req see
system.mem_ctrls.wrQLenPdf::26                   4522                       # What write queue length does an incoming req see
system.mem_ctrls.wrQLenPdf::27                   4492                       # What write queue length does an incoming req see
system.mem_ctrls.wrQLenPdf::28                   4509                       # What write queue length does an incoming req see
system.mem_ctrls.wrQLenPdf::29                   4492                       # What write queue length does an incoming req see
system.mem_ctrls.wrQLenPdf::30                   4492                       # What write queue length does an incoming req see
system.mem_ctrls.wrQLenPdf::31                   4492                       # What write queue length does an incoming req see
system.mem_ctrls.wrQLenPdf::32                   4492                       # What write queue length does an incoming req see
system.mem_ctrls.wrQLenPdf::33                      3                       # What write queue length does an incoming req see
system.mem_ctrls.wrQLenPdf::34                      0                       # What write queue length does an incoming req see
system.mem_ctrls.wrQLenPdf::35                      0                       # What write queue length does an incoming req see
system.mem_ctrls.wrQLenPdf::36                      0                       # What write queue length does an incoming req see
system.mem_ctrls.wrQLenPdf::37                      0                       # What write queue length does an incoming req see
system.mem_ctrls.wrQLenPdf::38                      0                       # What write queue length does an incoming req see
system.mem_ctrls.wrQLenPdf::39                      0                       # What write queue length does an incoming req see
system.mem_ctrls.wrQLenPdf::40                      0                       # What write queue length does an incoming req see
system.mem_ctrls.wrQLenPdf::41                      0                       # What write queue length does an incoming req see
system.mem_ctrls.wrQLenPdf::42                      0                       # What write queue length does an incoming req see
system.mem_ctrls.wrQLenPdf::43                      0                       # What write queue length does an incoming req see
system.mem_ctrls.wrQLenPdf::44                      0                       # What write queue length does an incoming req see
system.mem_ctrls.wrQLenPdf::45                      0                       # What write queue length does an incoming req see
system.mem_ctrls.wrQLenPdf::46                      0                       # What write queue length does an incoming req see
system.mem_ctrls.wrQLenPdf::47                      0                       # What write queue length does an incoming req see
system.mem_ctrls.wrQLenPdf::48                      0                       # What write queue length does an incoming req see
system.mem_ctrls.wrQLenPdf::49                      0                       # What write queue length does an incoming req see
system.mem_ctrls.wrQLenPdf::50                      0                       # What write queue length does an incoming req see
system.mem_ctrls.wrQLenPdf::51                      0                       # What write queue length does an incoming req see
system.mem_ctrls.wrQLenPdf::52                      0                       # What write queue length does an incoming req see
system.mem_ctrls.wrQLenPdf::53                      0                       # What write queue length does an incoming req see
system.mem_ctrls.wrQLenPdf::54                      0                       # What write queue length does an incoming req see
system.mem_ctrls.wrQLenPdf::55                      0                       # What write queue length does an incoming req see
system.mem_ctrls.wrQLenPdf::56                      0                       # What write queue length does an incoming req see
system.mem_ctrls.wrQLenPdf::57                      0                       # What write queue length does an incoming req see
system.mem_ctrls.wrQLenPdf::58                      0                       # What write queue length does an incoming req see
system.mem_ctrls.wrQLenPdf::59                      0                       # What write queue length does an incoming req see
system.mem_ctrls.wrQLenPdf::60                      0                       # What write queue length does an incoming req see
system.mem_ctrls.wrQLenPdf::61                      0                       # What write queue length does an incoming req see
system.mem_ctrls.wrQLenPdf::62                      0                       # What write queue length does an incoming req see
system.mem_ctrls.wrQLenPdf::63                      0                       # What write queue length does an incoming req see
system.mem_ctrls.rdPerTurnAround::samples         4492                       # Reads before turning the bus around for writes
system.mem_ctrls.rdPerTurnAround::mean      42.053428                       # Reads before turning the bus around for writes
system.mem_ctrls.rdPerTurnAround::stdev    133.102428                       # Reads before turning the bus around for writes
system.mem_ctrls.rdPerTurnAround::0-255          4470     99.51%     99.51% # Reads before turning the bus around for writes
system.mem_ctrls.rdPerTurnAround::256-511           12      0.27%     99.78% # Reads before turning the bus around for writes
system.mem_ctrls.rdPerTurnAround::512-767            5      0.11%     99.89% # Reads before turning the bus around for writes
system.mem_ctrls.rdPerTurnAround::768-1023            2      0.04%     99.93% # Reads before turning the bus around for writes
system.mem_ctrls.rdPerTurnAround::1280-1535            1      0.02%     99.96% # Reads before turning the bus around for writes
system.mem_ctrls.rdPerTurnAround::5376-5631            1      0.02%     99.98% # Reads before turning the bus around for writes
system.mem_ctrls.rdPerTurnAround::6400-6655            1      0.02%    100.00% # Reads before turning the bus around for writes
system.mem_ctrls.rdPerTurnAround::total          4492                       # Reads before turning the bus around for writes
system.mem_ctrls.wrPerTurnAround::samples         4492                       # Writes before turning the bus around for reads
system.mem_ctrls.wrPerTurnAround::mean      17.817676                       # Writes before turning the bus around for reads
system.mem_ctrls.wrPerTurnAround::gmean     17.800939                       # Writes before turning the bus around for reads
system.mem_ctrls.wrPerTurnAround::stdev      0.755250                       # Writes before turning the bus around for reads
system.mem_ctrls.wrPerTurnAround::16              577     12.85%     12.85% # Writes before turning the bus around for reads
system.mem_ctrls.wrPerTurnAround::17               34      0.76%     13.60% # Writes before turning the bus around for reads
system.mem_ctrls.wrPerTurnAround::18             3512     78.18%     91.79% # Writes before turning the bus around for reads
system.mem_ctrls.wrPerTurnAround::19              369      8.21%    100.00% # Writes before turning the bus around for reads
system.mem_ctrls.wrPerTurnAround::total          4492                       # Writes before turning the bus around for reads
system.mem_ctrls.bytesReadWrQ                    5632                       # Total number of bytes read from write queue
system.mem_ctrls.bytesReadSys                 6048320                       # Total read bytes from the system interface side
system.mem_ctrls.bytesWrittenSys              4683104                       # Total written bytes from the system interface side
system.mem_ctrls.avgRdBWSys                     43.99                       # Average system read bandwidth in MiByte/s
system.mem_ctrls.avgWrBWSys                     34.06                       # Average system write bandwidth in MiByte/s
system.mem_ctrls.totGap                  137488669500                       # Total gap between requests
system.mem_ctrls.avgGap                     409977.04                       # Average gap between requests
system.mem_ctrls.requestorReadBytes::.cpu.inst       126528                       # Per-requestor bytes read from memory
[...]
system.mem_ctrls.dram.bw_total::.cpu.data     43071123                       # Total bandwidth to/from this memory (bytes/s)
system.mem_ctrls.dram.bw_total::total        78053143                       # Total bandwidth to/from this memory (bytes/s)
system.mem_ctrls.dram.readBursts               188922                       # Number of DRAM read bursts
system.mem_ctrls.dram.writeBursts               80037                       # Number of DRAM write bursts
system.mem_ctrls.dram.perBankRdBursts::0        12373                       # Per bank write bursts
system.mem_ctrls.dram.perBankRdBursts::1        12263                       # Per bank write bursts
system.mem_ctrls.dram.perBankRdBursts::2        11859                       # Per bank write bursts
system.mem_ctrls.dram.perBankRdBursts::3        12682                       # Per bank write bursts
system.mem_ctrls.dram.perBankRdBursts::4        11622                       # Per bank write bursts
system.mem_ctrls.dram.perBankRdBursts::5        11300                       # Per bank write bursts
system.mem_ctrls.dram.perBankRdBursts::6        10829                       # Per bank write bursts
system.mem_ctrls.dram.perBankRdBursts::7        11678                       # Per bank write bursts
system.mem_ctrls.dram.perBankRdBursts::8        12162                       # Per bank write bursts
system.mem_ctrls.dram.perBankRdBursts::9        12612                       # Per bank write bursts
system.mem_ctrls.dram.perBankRdBursts::10        12369                       # Per bank write bursts
system.mem_ctrls.dram.perBankRdBursts::11        11712                       # Per bank write bursts
system.mem_ctrls.dram.perBankRdBursts::12        11286                       # Per bank write bursts
system.mem_ctrls.dram.perBankRdBursts::13        11015                       # Per bank write bursts
system.mem_ctrls.dram.perBankRdBursts::14        11371                       # Per bank write bursts
system.mem_ctrls.dram.perBankRdBursts::15        11789                       # Per bank write bursts
system.mem_ctrls.dram.perBankWrBursts::0         5175                       # Per bank write bursts
system.mem_ctrls.dram.perBankWrBursts::1         5110                       # Per bank write bursts
system.mem_ctrls.dram.perBankWrBursts::2         5074                       # Per bank write bursts
system.mem_ctrls.dram.perBankWrBursts::3         5161                       # Per bank write bursts
system.mem_ctrls.dram.perBankWrBursts::4         4821                       # Per bank write bursts
system.mem_ctrls.dram.perBankWrBursts::5         4888                       # Per bank write bursts
system.mem_ctrls.dram.perBankWrBursts::6         4861                       # Per bank write bursts
system.mem_ctrls.dram.perBankWrBursts::7         4744                       # Per bank write bursts
system.mem_ctrls.dram.perBankWrBursts::8         5280                       # Per bank write bursts
system.mem_ctrls.dram.perBankWrBursts::9         5222                       # Per bank write bursts
system.mem_ctrls.dram.perBankWrBursts::10         5084                       # Per bank write bursts
system.mem_ctrls.dram.perBankWrBursts::11         5021                       # Per bank write bursts
system.mem_ctrls.dram.perBankWrBursts::12         5052                       # Per bank write bursts
system.mem_ctrls.dram.perBankWrBursts::13         4754                       # Per bank write bursts
system.mem_ctrls.dram.perBankWrBursts::14         4934                       # Per bank write bursts
system.mem_ctrls.dram.perBankWrBursts::15         4856                       # Per bank write bursts
system.mem_ctrls.dram.totQLat              2255111250                       # Total ticks spent queuing
system.mem_ctrls.dram.totBusLat             944610000                       # Total ticks spent in databus transfers
system.mem_ctrls.dram.totMemAccLat         5797398750                       # Total ticks spent from burst creation until serviced by the DRAM
system.mem_ctrls.dram.avgQLat                11936.73                       # Average queueing delay per DRAM burst
system.mem_ctrls.dram.avgBusLat               5000.00                       # Average bus latency per DRAM burst
system.mem_ctrls.dram.avgMemAccLat           30686.73                       # Average memory access latency per DRAM burst
system.mem_ctrls.dram.readRowHits              120143                       # Number of row buffer hits during reads
system.mem_ctrls.dram.writeRowHits              70004                       # Number of row buffer hits during writes
system.mem_ctrls.dram.readRowHitRate            63.59                       # Row buffer hit rate for reads
system.mem_ctrls.dram.writeRowHitRate           87.46                       # Row buffer hit rate for writes
system.mem_ctrls.dram.bytesPerActivate::samples        78801                       # Bytes accessed per row activation
system.mem_ctrls.dram.bytesPerActivate::mean   218.380173                       # Bytes accessed per row activation
system.mem_ctrls.dram.bytesPerActivate::gmean   124.911217                       # Bytes accessed per row activation
system.mem_ctrls.dram.bytesPerActivate::stdev   277.296760                       # Bytes accessed per row activation
system.mem_ctrls.dram.bytesPerActivate::0-127        48806     61.94%     61.94% # Bytes accessed per row activation
system.mem_ctrls.dram.bytesPerActivate::128-255         6850      8.69%     70.63% # Bytes accessed per row activation
system.mem_ctrls.dram.bytesPerActivate::256-383        10307     13.08%     83.71% # Bytes accessed per row activation
system.mem_ctrls.dram.bytesPerActivate::384-511         1803      2.29%     86.00% # Bytes accessed per row activation
system.mem_ctrls.dram.bytesPerActivate::512-639         1717      2.18%     88.18% # Bytes accessed per row activation
system.mem_ctrls.dram.bytesPerActivate::640-767         2099      2.66%     90.84% # Bytes accessed per row activation
system.mem_ctrls.dram.bytesPerActivate::768-895         1211      1.54%     92.38% # Bytes accessed per row activation
system.mem_ctrls.dram.bytesPerActivate::896-1023         1203      1.53%     93.90% # Bytes accessed per row activation
system.mem_ctrls.dram.bytesPerActivate::1024-1151         4805      6.10%    100.00% # Bytes accessed per row activation
system.mem_ctrls.dram.bytesPerActivate::total        78801                       # Bytes accessed per row activation
system.mem_ctrls.dram.bytesRead              12091008                       # Total number of bytes read from DRAM
system.mem_ctrls.dram.bytesWritten            5122368                       # Total number of bytes written to DRAM
system.mem_ctrls.dram.avgRdBW               87.941841                       # Average DRAM read bandwidth in MiBytes/s
system.mem_ctrls.dram.avgWrBW               37.256651                       # Average DRAM write bandwidth in MiBytes/s
system.mem_ctrls.dram.peakBW                 12800.00                       # Theoretical peak bandwidth in MiByte/s
system.mem_ctrls.dram.busUtil                    0.98                       # Data bus utilization in percentage
system.mem_ctrls.dram.busUtilRead                0.69                       # Data bus utilization in percentage for reads
system.mem_ctrls.dram.busUtilWrite               0.29                       # Data bus utilization in percentage for writes
system.mem_ctrls.dram.pageHitRate               70.70                       # Row buffer hit rate, read and write combined
system.mem_ctrls.dram.power_state.pwrStateResidencyTicks::UNDEFINED 137488684500                       # Cumulative time (in ticks) in various power states
system.mem_ctrls.dram.rank0.actEnergy       284229120                       # Energy for activate commands per rank (pJ)
system.mem_ctrls.dram.rank0.preEnergy       151048590                       # Energy for precharge commands per rank (pJ)
system.mem_ctrls.dram.rank0.readEnergy      675486840                       # Energy for read commands per rank (pJ)
system.mem_ctrls.dram.rank0.writeEnergy     207933480                       # Energy for write commands per rank (pJ)
system.mem_ctrls.dram.rank0.refreshEnergy 10852698480.000002                       # Energy for refresh commands per rank (pJ)
system.mem_ctrls.dram.rank0.actBackEnergy  24396356820                       # Energy for active background per rank (pJ)
system.mem_ctrls.dram.rank0.preBackEnergy  32251354560                       # Energy for precharge background per rank (pJ)
system.mem_ctrls.dram.rank0.actPowerDownEnergy            0                       # Energy for active power-down per rank (pJ)
system.mem_ctrls.dram.rank0.prePowerDownEnergy            0                       # Energy for precharge power-down per rank (pJ)
system.mem_ctrls.dram.rank0.selfRefreshEnergy            0                       # Energy for self refresh per rank (pJ)
system.mem_ctrls.dram.rank0.totalEnergy   68819107890                       # Total energy per rank (pJ)
system.mem_ctrls.dram.rank0.averagePower   500.543795                       # Core power per rank (mW)
system.mem_ctrls.dram.rank0.totalIdleTime            0                       # Total Idle time Per DRAM Rank
system.mem_ctrls.dram.rank0.pwrStateTime::IDLE  83444647500                       # Time in different power states
system.mem_ctrls.dram.rank0.pwrStateTime::REF   4590820000                       # Time in different power states
system.mem_ctrls.dram.rank0.pwrStateTime::SREF            0                       # Time in different power states
system.mem_ctrls.dram.rank0.pwrStateTime::PRE_PDN            0                       # Time in different power states
system.mem_ctrls.dram.rank0.pwrStateTime::ACT  49453217000                       # Time in different power states
system.mem_ctrls.dram.rank0.pwrStateTime::ACT_PDN            0                       # Time in different power states
system.mem_ctrls.dram.rank1.actEnergy       278488560                       # Energy for activate commands per rank (pJ)
system.mem_ctrls.dram.rank1.preEnergy       148001205                       # Energy for precharge commands per rank (pJ)
system.mem_ctrls.dram.rank1.readEnergy      673416240                       # Energy for read commands per rank (pJ)
system.mem_ctrls.dram.rank1.writeEnergy     209859660                       # Energy for write commands per rank (pJ)
system.mem_ctrls.dram.rank1.refreshEnergy 10852698480.000002                       # Energy for refresh commands per rank (pJ)
system.mem_ctrls.dram.rank1.actBackEnergy  24871460940                       # Energy for active background per rank (pJ)
system.mem_ctrls.dram.rank1.preBackEnergy  31851266880                       # Energy for precharge background per rank (pJ)
system.mem_ctrls.dram.rank1.actPowerDownEnergy            0                       # Energy for active power-down per rank (pJ)
system.mem_ctrls.dram.rank1.prePowerDownEnergy            0                       # Energy for precharge power-down per rank (pJ)
system.mem_ctrls.dram.rank1.selfRefreshEnergy            0                       # Energy for self refresh per rank (pJ)
system.mem_ctrls.dram.rank1.totalEnergy   68885191965                       # Total energy per rank (pJ)
system.mem_ctrls.dram.rank1.averagePower   501.024446                       # Core power per rank (mW)
system.mem_ctrls.dram.rank1.totalIdleTime            0                       # Total Idle time Per DRAM Rank
system.mem_ctrls.dram.rank1.pwrStateTime::IDLE  82346867250                       # Time in different power states
system.mem_ctrls.dram.rank1.pwrStateTime::REF   4590820000                       # Time in different power states
system.mem_ctrls.dram.rank1.pwrStateTime::SREF            0                       # Time in different power states
system.mem_ctrls.dram.rank1.pwrStateTime::PRE_PDN            0                       # Time in different power states
system.mem_ctrls.dram.rank1.pwrStateTime::ACT  50550997250                       # Time in different power states
system.mem_ctrls.dram.rank1.pwrStateTime::ACT_PDN            0                       # Time in different power states
system.mem_ctrls.power_state.pwrStateResidencyTicks::UNDEFINED 137488684500                       # Cumulative time (in ticks) in various power states
system.membus.trans_dist::ReadResp              78408                       # Transaction distribution
system.membus.trans_dist::WritebackDirty       146347                       # Transaction distribution
system.membus.trans_dist::CleanEvict            33246                       # Transaction distribution
system.membus.trans_dist::ReadExReq            110602                       # Transaction distribution
system.membus.trans_dist::ReadExResp           110602                       # Transaction distribution
system.membus.trans_dist::ReadSharedReq         78408                       # Transaction distribution
system.membus.pkt_count_system.l2.mem_side_port::system.mem_ctrls.port       557613                       # Packet count per connected requestor and responder (bytes)
system.membus.pkt_count_system.l2.mem_side_port::total       557613                       # Packet count per connected requestor and responder (bytes)
system.membus.pkt_count::total                 557613                       # Packet count per connected requestor and responder (bytes)
system.membus.pkt_size_system.l2.mem_side_port::system.mem_ctrls.port     10731424                       # Cumulative packet size per connected requestor and responder (bytes)
system.membus.pkt_size_system.l2.mem_side_port::total     10731424                       # Cumulative packet size per connected requestor and responder (bytes)
system.membus.pkt_size::total                10731424                       # Cumulative packet size per connected requestor and responder (bytes)
system.membus.snoops                                0                       # Total snoops (count)
system.membus.snoopTraffic                          0                       # Total snoop traffic (bytes)
system.membus.snoop_fanout::samples            189010                       # Request fanout histogram
system.membus.snoop_fanout::mean                    0                       # Request fanout histogram
system.membus.snoop_fanout::stdev                   0                       # Request fanout histogram
system.membus.snoop_fanout::underflows              0      0.00%      0.00% # Request fanout histogram
system.membus.snoop_fanout::0                  189010    100.00%    100.00% # Request fanout histogram
system.membus.snoop_fanout::1                       0      0.00%    100.00% # Request fanout histogram
system.membus.snoop_fanout::overflows               0      0.00%    100.00% # Request fanout histogram
system.membus.snoop_fanout::min_value               0                       # Request fanout histogram
system.membus.snoop_fanout::max_value               0                       # Request fanout histogram
system.membus.snoop_fanout::total              189010                       # Request fanout histogram
system.membus.power_state.pwrStateResidencyTicks::UNDEFINED 137488684500                       # Cumulative time (in ticks) in various power states
system.membus.reqLayer2.occupancy           661337000                       # Layer occupancy (ticks)
system.membus.reqLayer2.utilization               0.5                       # Layer utilization (%)
system.membus.respLayer1.occupancy          641482250                       # Layer occupancy (ticks)
system.membus.respLayer1.utilization              0.5                       # Layer utilization (%)
system.tol2bus.trans_dist::ReadResp             86740                       # Transaction distribution
system.tol2bus.trans_dist::WritebackDirty       303144                       # Transaction distribution
system.tol2bus.trans_dist::WritebackClean          869                       # Transaction distribution
system.tol2bus.trans_dist::CleanEvict          215702                       # Transaction distribution
system.tol2bus.trans_dist::ReadExReq           110915                       # Transaction distribution
system.tol2bus.trans_dist::ReadExResp          110915                       # Transaction distribution
system.tol2bus.trans_dist::ReadCleanReq          3974                       # Transaction distribution
system.tol2bus.trans_dist::ReadSharedReq        82766                       # Transaction distribution
system.tol2bus.pkt_count_system.cpu.icache.mem_side_port::system.l2.cpu_side_port         8817                       # Packet count per connected requestor and responder (bytes)
system.tol2bus.pkt_count_system.cpu.dcache.mem_side_port::system.l2.cpu_side_port       576947                       # Packet count per connected requestor and responder (bytes)
system.tol2bus.pkt_count::total                585764                       # Packet count per connected requestor and responder (bytes)
system.tol2bus.pkt_size_system.cpu.icache.mem_side_port::system.l2.cpu_side_port       154976                       # Cumulative packet size per connected requestor and responder (bytes)
system.tol2bus.pkt_size_system.cpu.dcache.mem_side_port::system.l2.cpu_side_port     11215296                       # Cumulative packet size per connected requestor and responder (bytes)
system.tol2bus.pkt_size::total               11370272                       # Cumulative packet size per connected requestor and responder (bytes)
system.tol2bus.snoops                          329261                       # Total snoops (count)
system.tol2bus.snoopTraffic                   4683104                       # Total snoop traffic (bytes)
system.tol2bus.snoop_fanout::samples           526916                       # Request fanout histogram
system.tol2bus.snoop_fanout::mean            0.333814                       # Request fanout histogram
system.tol2bus.snoop_fanout::stdev           0.471575                       # Request fanout histogram
system.tol2bus.snoop_fanout::underflows             0      0.00%      0.00% # Request fanout histogram
system.tol2bus.snoop_fanout::0                 351024     66.62%     66.62% # Request fanout histogram
system.tol2bus.snoop_fanout::1                 175892     33.38%    100.00% # Request fanout histogram
system.tol2bus.snoop_fanout::2                      0      0.00%    100.00% # Request fanout histogram
system.tol2bus.snoop_fanout::3                      0      0.00%    100.00% # Request fanout histogram
system.tol2bus.snoop_fanout::4                      0      0.00%    100.00% # Request fanout histogram
system.tol2bus.snoop_fanout::overflows              0      0.00%    100.00% # Request fanout histogram
system.tol2bus.snoop_fanout::min_value              0                       # Request fanout histogram
system.tol2bus.snoop_fanout::max_value              1                       # Request fanout histogram
system.tol2bus.snoop_fanout::total             526916                       # Request fanout histogram
system.tol2bus.power_state.pwrStateResidencyTicks::UNDEFINED 137488684500                       # Cumulative time (in ticks) in various power states
system.tol2bus.reqLayer0.occupancy          272887500                       # Layer occupancy (ticks)
system.tol2bus.reqLayer0.utilization              0.2                       # Layer utilization (%)
system.tol2bus.respLayer0.occupancy           3974000                       # Layer occupancy (ticks)
system.tol2bus.respLayer0.utilization             0.0                       # Layer utilization (%)
system.tol2bus.respLayer1.occupancy         193681000                       # Layer occupancy (ticks)
system.tol2bus.respLayer1.utilization             0.1                       # Layer utilization (%)
system.voltage_domain.voltage                       1                       # Voltage in Volts

---------- End Simulation Statistics   ----------
