
---------- Begin Simulation Statistics ----------
final_tick                               137407868500                       # Number of ticks from beginning of simulation (restored from checkpoints and never reset)
host_inst_rate                                 465623                       # Simulator instruction rate (inst/s)
host_mem_usage                                 712668                       # Number of bytes of host memory used
host_op_rate                                   712283                       # Simulator op (including micro ops) rate (op/s)
host_seconds                                   136.24                       # Real time elapsed on the host
host_tick_rate                             1008564128                       # Simulator tick rate (ticks/s)
sim_freq                                 1000000000000                       # Frequency of simulated ticks
sim_insts                                    63436880                       # Number of instructions simulated
sim_ops                                      97042214                       # Number of ops (including micro ops) simulated
sim_seconds                                  0.137408                       # Number of seconds simulated
sim_ticks                                137407868500                       # Number of ticks simulated
system.cpu.Branches                           7714394                       # Number of branches fetched
system.cpu.committedInsts                    63436880                       # Number of instructions committed
system.cpu.committedOps                      97042214                       # Number of ops (including micro ops) committed
system.cpu.idle_fraction                     0.000000                       # Percentage of idle cycles
system.cpu.not_idle_fraction                 1.000000                       # Percentage of non-idle cycles
system.cpu.numCycles                        274815737                       # number of cpu cycles simulated
system.cpu.numWorkItemsCompleted                    0                       # number of work items this cpu completed
system.cpu.numWorkItemsStarted                      0                       # number of work items this cpu started
system.cpu.num_busy_cycles               274815736.998000                       # Number of busy cycles
system.cpu.num_cc_register_reads             29902191                       # number of times the CC registers were read
system.cpu.num_cc_register_writes            27168375                       # number of times the CC registers were written
system.cpu.num_conditional_control_insts      4234784                       # number of instructions that are conditional controls
system.cpu.num_fp_alu_accesses                  85206                       # Number of float alu accesses
system.cpu.num_fp_insts                         85206                       # number of float instructions
system.cpu.num_fp_register_reads               119500                       # number of times the floating registers were read
system.cpu.num_fp_register_writes               63458                       # number of times the floating registers were written
system.cpu.num_func_calls                     1924148                       # number of times a function call or return occured
system.cpu.num_idle_cycles                   0.002000                       # Number of idle cycles
system.cpu.num_int_alu_accesses              95088671                       # Number of integer alu accesses
system.cpu.num_int_insts                     95088671                       # number of integer instructions
system.cpu.num_int_register_reads           214307215                       # number of times the integer registers were read
system.cpu.num_int_register_writes           77409630                       # number of times the integer registers were written
system.cpu.num_load_insts                    26073751                       # Number of load instructions
system.cpu.num_mem_refs                      36099173                       # number of memory refs
system.cpu.num_store_insts                   10025422                       # Number of store instructions
system.cpu.num_vec_alu_accesses                     0                       # Number of vector alu accesses
system.cpu.num_vec_insts                            0                       # number of vector instructions
system.cpu.num_vec_register_reads                   0                       # number of times the vector registers were read
system.cpu.num_vec_register_writes                  0                       # number of times the vector registers were written
system.cpu.op_class::No_OpClass                976243      1.01%      1.01% # Class of executed instruction
system.cpu.op_class::IntAlu                  59879196     61.70%     62.71% # Class of executed instruction
system.cpu.op_class::IntMult                       74      0.00%     62.71% # Class of executed instruction
system.cpu.op_class::IntDiv                     36240      0.04%     62.75% # Class of executed instruction
system.cpu.op_class::FloatAdd                    5590      0.01%     62.75% # Class of executed instruction
system.cpu.op_class::FloatCmp                       0      0.00%     62.75% # Class of executed instruction
system.cpu.op_class::FloatCvt                    1232      0.00%     62.75% # Class of executed instruction
system.cpu.op_class::FloatMult                      0      0.00%     62.75% # Class of executed instruction
system.cpu.op_class::FloatMultAcc                   0      0.00%     62.75% # Class of executed instruction
system.cpu.op_class::FloatDiv                       0      0.00%     62.75% # Class of executed instruction
system.cpu.op_class::FloatMisc                      0      0.00%     62.75% # Class of executed instruction
system.cpu.op_class::FloatSqrt                      0      0.00%     62.75% # Class of executed instruction
system.cpu.op_class::SimdAdd                     6716      0.01%     62.76% # Class of executed instruction
system.cpu.op_class::SimdAddAcc                     0      0.00%     62.76% # Class of executed instruction
system.cpu.op_class::SimdAlu                    12162      0.01%     62.77% # Class of executed instruction
system.cpu.op_class::SimdCmp                        6      0.00%     62.77% # Class of executed instruction
system.cpu.op_class::SimdCvt                    13804      0.01%     62.79% # Class of executed instruction
system.cpu.op_class::SimdMisc                   12230      0.01%     62.80% # Class of executed instruction
system.cpu.op_class::SimdMult                       0      0.00%     62.80% # Class of executed instruction
system.cpu.op_class::SimdMultAcc                    0      0.00%     62.80% # Class of executed instruction
system.cpu.op_class::SimdShift                    436      0.00%     62.80% # Class of executed instruction
system.cpu.op_class::SimdShiftAcc                   0      0.00%     62.80% # Class of executed instruction
system.cpu.op_class::SimdDiv                        0      0.00%     62.80% # Class of executed instruction
system.cpu.op_class::SimdSqrt                       0      0.00%     62.80% # Class of executed instruction
system.cpu.op_class::SimdFloatAdd                  10      0.00%     62.80% # Class of executed instruction
system.cpu.op_class::SimdFloatAlu                   0      0.00%     62.80% # Class of executed instruction
system.cpu.op_class::SimdFloatCmp                   0      0.00%     62.80% # Class of executed instruction
system.cpu.op_class::SimdFloatCvt                  30      0.00%     62.80% # Class of executed instruction
system.cpu.op_class::SimdFloatDiv                   0      0.00%     62.80% # Class of executed instruction
system.cpu.op_class::SimdFloatMisc                  0      0.00%     62.80% # Class of executed instruction
system.cpu.op_class::SimdFloatMult                 12      0.00%     62.80% # Class of executed instruction
system.cpu.op_class::SimdFloatMultAcc               0      0.00%     62.80% # Class of executed instruction
system.cpu.op_class::SimdFloatSqrt                  0      0.00%     62.80% # Class of executed instruction
system.cpu.op_class::SimdReduceAdd                  0      0.00%     62.80% # Class of executed instruction
system.cpu.op_class::SimdReduceAlu                  0      0.00%     62.80% # Class of executed instruction
system.cpu.op_class::SimdReduceCmp                  0      0.00%     62.80% # Class of executed instruction
system.cpu.op_class::SimdFloatReduceAdd             0      0.00%     62.80% # Class of executed instruction
system.cpu.op_class::SimdFloatReduceCmp             0      0.00%     62.80% # Class of executed instruction
system.cpu.op_class::SimdAes                        0      0.00%     62.80% # Class of executed instruction
system.cpu.op_class::SimdAesMix                     0      0.00%     62.80% # Class of executed instruction
system.cpu.op_class::SimdSha1Hash                   0      0.00%     62.80% # Class of executed instruction
system.cpu.op_class::SimdSha1Hash2                  0      0.00%     62.80% # Class of executed instruction
system.cpu.op_class::SimdSha256Hash                 0      0.00%     62.80% # Class of executed instruction
system.cpu.op_class::SimdSha256Hash2                0      0.00%     62.80% # Class of executed instruction
system.cpu.op_class::SimdShaSigma2                  0      0.00%     62.80% # Class of executed instruction
system.cpu.op_class::SimdShaSigma3                  0      0.00%     62.80% # Class of executed instruction
system.cpu.op_class::SimdPredAlu                    0      0.00%     62.80% # Class of executed instruction
system.cpu.op_class::MemRead                 26056914     26.85%     89.65% # Class of executed instruction
system.cpu.op_class::MemWrite                10011984     10.32%     99.97% # Class of executed instruction
system.cpu.op_class::FloatMemRead               16837      0.02%     99.99% # Class of executed instruction
system.cpu.op_class::FloatMemWrite              13438      0.01%    100.00% # Class of executed instruction
system.cpu.op_class::IprAccess                      0      0.00%    100.00% # Class of executed instruction
system.cpu.op_class::InstPrefetch                   0      0.00%    100.00% # Class of executed instruction
system.cpu.op_class::total                   97043154                       # Class of executed instruction
system.cpu.workload.numSyscalls                   100                       # Number of system calls
system.membus.snoop_filter.hit_multi_requests            0                       # Number of requests hitting in the snoop filter with multiple (>1) holders of the requested data.
system.membus.snoop_filter.hit_multi_snoops            0                       # Number of snoops hitting in the snoop filter with multiple (>1) holders of the requested data.
system.membus.snoop_filter.hit_single_requests       179488                       # Number of requests hitting in the snoop filter with a single holder of the requested data.
system.membus.snoop_filter.hit_single_snoops            0                       # Number of snoops hitting in the snoop filter with a single holder of the requested data.
system.membus.snoop_filter.tot_requests        368490                       # Total number of requests made to the snoop filter.
system.membus.snoop_filter.tot_snoops               0                       # Total number of snoops made to the snoop filter.
system.tol2bus.snoop_filter.hit_multi_requests            0                       # Number of requests hitting in the snoop filter with multiple (>1) holders of the requested data.
system.tol2bus.snoop_filter.hit_multi_snoops            0                       # Number of snoops hitting in the snoop filter with multiple (>1) holders of the requested data.
system.tol2bus.snoop_filter.hit_single_requests       187135                       # Number of requests hitting in the snoop filter with a single holder of the requested data.
system.tol2bus.snoop_filter.hit_single_snoops       176556                       # Number of snoops hitting in the snoop filter with a single holder of the requested data.
system.tol2bus.snoop_filter.tot_requests       381471                       # Total number of requests made to the snoop filter.
system.tol2bus.snoop_filter.tot_snoops         176556                       # Total number of snoops made to the snoop filter.
system.clk_domain.clock                          1000                       # Clock period in ticks
system.cpu.dcache.demand_hits::.cpu.data     35941112                       # number of demand (read+write) hits
system.cpu.dcache.demand_hits::total         35941112                       # number of demand (read+write) hits
system.cpu.dcache.overall_hits::.cpu.data     35941112                       # number of overall hits
system.cpu.dcache.overall_hits::total        35941112                       # number of overall hits
system.cpu.dcache.demand_misses::.cpu.data       190362                       # number of demand (read+write) misses
system.cpu.dcache.demand_misses::total         190362                       # number of demand (read+write) misses
system.cpu.dcache.overall_misses::.cpu.data       190362                       # number of overall misses
system.cpu.dcache.overall_misses::total        190362                       # number of overall misses
system.cpu.dcache.demand_miss_latency::.cpu.data  15603024500                       # number of demand (read+write) miss cycles
system.cpu.dcache.demand_miss_latency::total  15603024500                       # number of demand (read+write) miss cycles
system.cpu.dcache.overall_miss_latency::.cpu.data  15603024500                       # number of overall miss cycles
system.cpu.dcache.overall_miss_latency::total  15603024500                       # number of overall miss cycles
system.cpu.dcache.demand_accesses::.cpu.data     36131474                       # number of demand (read+write) accesses
system.cpu.dcache.demand_accesses::total     36131474                       # number of demand (read+write) accesses
system.cpu.dcache.overall_accesses::.cpu.data     36131474                       # number of overall (read+write) accesses
system.cpu.dcache.overall_accesses::total     36131474                       # number of overall (read+write) accesses
system.cpu.dcache.demand_miss_rate::.cpu.data     0.005269                       # miss rate for demand accesses
system.cpu.dcache.demand_miss_rate::total     0.005269                       # miss rate for demand accesses
system.cpu.dcache.overall_miss_rate::.cpu.data     0.005269                       # miss rate for overall accesses
system.cpu.dcache.overall_miss_rate::total     0.005269                       # miss rate for overall accesses
system.cpu.dcache.demand_avg_miss_latency::.cpu.data 81965.016652                       # average overall miss latency
system.cpu.dcache.demand_avg_miss_latency::total 81965.016652                       # average overall miss latency
system.cpu.dcache.overall_avg_miss_latency::.cpu.data 81965.016652                       # average overall miss latency
system.cpu.dcache.overall_avg_miss_latency::total 81965.016652                       # average overall miss latency
system.cpu.dcache.blocked_cycles::no_mshrs            0                       # number of cycles access was blocked
system.cpu.dcache.blocked_cycles::no_targets            0                       # number of cycles access was blocked
system.cpu.dcache.blocked::no_mshrs                 0                       # number of cycles access was blocked
system.cpu.dcache.blocked::no_targets               0                       # number of cycles access was blocked
system.cpu.dcache.avg_blocked_cycles::no_mshrs          nan                       # average number of cycles each access was blocked
system.cpu.dcache.avg_blocked_cycles::no_targets          nan                       # average number of cycles each access was blocked
system.cpu.dcache.writebacks::.writebacks       153272                       # number of writebacks
system.cpu.dcache.writebacks::total            153272                       # number of writebacks
system.cpu.dcache.demand_mshr_misses::.cpu.data       190362                       # number of demand (read+write) MSHR misses
system.cpu.dcache.demand_mshr_misses::total       190362                       # number of demand (read+write) MSHR misses
system.cpu.dcache.overall_mshr_misses::.cpu.data       190362                       # number of overall MSHR misses
system.cpu.dcache.overall_mshr_misses::total       190362                       # number of overall MSHR misses
system.cpu.dcache.demand_mshr_miss_latency::.cpu.data  15412662500                       # number of demand (read+write) MSHR miss cycles
system.cpu.dcache.demand_mshr_miss_latency::total  15412662500                       # number of demand (read+write) MSHR miss cycles
system.cpu.dcache.overall_mshr_miss_latency::.cpu.data  15412662500                       # number of overall MSHR miss cycles
system.cpu.dcache.overall_mshr_miss_latency::total  15412662500                       # number of overall MSHR miss cycles
system.cpu.dcache.demand_mshr_miss_rate::.cpu.data     0.005269                       # mshr miss rate for demand accesses
system.cpu.dcache.demand_mshr_miss_rate::total     0.005269                       # mshr miss rate for demand accesses
system.cpu.dcache.overall_mshr_miss_rate::.cpu.data     0.005269                       # mshr miss rate for overall accesses
system.cpu.dcache.overall_mshr_miss_rate::total     0.005269                       # mshr miss rate for overall accesses
system.cpu.dcache.demand_avg_mshr_miss_latency::.cpu.data 80965.016652                       # average overall mshr miss latency
system.cpu.dcache.demand_avg_mshr_miss_latency::total 80965.016652                       # average overall mshr miss latency
system.cpu.dcache.overall_avg_mshr_miss_latency::.cpu.data 80965.016652                       # average overall mshr miss latency
system.cpu.dcache.overall_avg_mshr_miss_latency::total 80965.016652                       # average overall mshr miss latency
system.cpu.dcache.replacements                 186266                       # number of replacements
system.cpu.dcache.ReadReq_hits::.cpu.data     25994403                       # number of ReadReq hits
system.cpu.dcache.ReadReq_hits::total        25994403                       # number of ReadReq hits
system.cpu.dcache.ReadReq_misses::.cpu.data        79468                       # number of ReadReq misses
system.cpu.dcache.ReadReq_misses::total         79468                       # number of ReadReq misses
system.cpu.dcache.ReadReq_miss_latency::.cpu.data   6930995500                       # number of ReadReq miss cycles
system.cpu.dcache.ReadReq_miss_latency::total   6930995500                       # number of ReadReq miss cycles
system.cpu.dcache.ReadReq_accesses::.cpu.data     26073871                       # number of ReadReq accesses(hits+misses)
system.cpu.dcache.ReadReq_accesses::total     26073871                       # number of ReadReq accesses(hits+misses)
system.cpu.dcache.ReadReq_miss_rate::.cpu.data     0.003048                       # miss rate for ReadReq accesses
system.cpu.dcache.ReadReq_miss_rate::total     0.003048                       # miss rate for ReadReq accesses
system.cpu.dcache.ReadReq_avg_miss_latency::.cpu.data 87217.439724                       # average ReadReq miss latency
system.cpu.dcache.ReadReq_avg_miss_latency::total 87217.439724                       # average ReadReq miss latency
system.cpu.dcache.ReadReq_mshr_misses::.cpu.data        79468                       # number of ReadReq MSHR misses
system.cpu.dcache.ReadReq_mshr_misses::total        79468                       # number of ReadReq MSHR misses
system.cpu.dcache.ReadReq_mshr_miss_latency::.cpu.data   6851527500                       # number of ReadReq MSHR miss cycles
system.cpu.dcache.ReadReq_mshr_miss_latency::total   6851527500                       # number of ReadReq MSHR miss cycles
system.cpu.dcache.ReadReq_mshr_miss_rate::.cpu.data     0.003048                       # mshr miss rate for ReadReq accesses
system.cpu.dcache.ReadReq_mshr_miss_rate::total     0.003048                       # mshr miss rate for ReadReq accesses
system.cpu.dcache.ReadReq_avg_mshr_miss_latency::.cpu.data 86217.439724                       # average ReadReq mshr miss latency
system.cpu.dcache.ReadReq_avg_mshr_miss_latency::total 86217.439724                       # average ReadReq mshr miss latency
system.cpu.dcache.WriteReq_hits::.cpu.data      9946709                       # number of WriteReq hits
system.cpu.dcache.WriteReq_hits::total        9946709                       # number of WriteReq hits
system.cpu.dcache.WriteReq_misses::.cpu.data       110894                       # number of WriteReq misses
system.cpu.dcache.WriteReq_misses::total       110894                       # number of WriteReq misses
system.cpu.dcache.WriteReq_miss_latency::.cpu.data   8672029000                       # number of WriteReq miss cycles
system.cpu.dcache.WriteReq_miss_latency::total   8672029000                       # number of WriteReq miss cycles
system.cpu.dcache.WriteReq_accesses::.cpu.data     10057603                       # number of WriteReq accesses(hits+misses)
system.cpu.dcache.WriteReq_accesses::total     10057603                       # number of WriteReq accesses(hits+misses)
system.cpu.dcache.WriteReq_miss_rate::.cpu.data     0.011026                       # miss rate for WriteReq accesses
system.cpu.dcache.WriteReq_miss_rate::total     0.011026                       # miss rate for WriteReq accesses
system.cpu.dcache.WriteReq_avg_miss_latency::.cpu.data 78201.065883                       # average WriteReq miss latency
system.cpu.dcache.WriteReq_avg_miss_latency::total 78201.065883                       # average WriteReq miss latency
system.cpu.dcache.WriteReq_mshr_misses::.cpu.data       110894                       # number of WriteReq MSHR misses
system.cpu.dcache.WriteReq_mshr_misses::total       110894                       # number of WriteReq MSHR misses
system.cpu.dcache.WriteReq_mshr_miss_latency::.cpu.data   8561135000                       # number of WriteReq MSHR miss cycles
system.cpu.dcache.WriteReq_mshr_miss_latency::total   8561135000                       # number of WriteReq MSHR miss cycles
system.cpu.dcache.WriteReq_mshr_miss_rate::.cpu.data     0.011026                       # mshr miss rate for WriteReq accesses
system.cpu.dcache.WriteReq_mshr_miss_rate::total     0.011026                       # mshr miss rate for WriteReq accesses
system.cpu.dcache.WriteReq_avg_mshr_miss_latency::.cpu.data 77201.065883                       # average WriteReq mshr miss latency
system.cpu.dcache.WriteReq_avg_mshr_miss_latency::total 77201.065883                       # average WriteReq mshr miss latency
system.cpu.dcache.power_state.pwrStateResidencyTicks::UNDEFINED 137407868500                       # Cumulative time (in ticks) in various power states
system.cpu.dcache.tags.tagsinuse          4085.720002                       # Cycle average of tags in use
system.cpu.dcache.tags.total_refs            36131474                       # Total number of references to valid blocks.
system.cpu.dcache.tags.sampled_refs            190362                       # Sample count of references to valid blocks.
system.cpu.dcache.tags.avg_refs            189.804026                       # Average number of references to valid blocks.
system.cpu.dcache.tags.warmup_cycle            174500                       # Cycle when the warmup percentage was hit.
system.cpu.dcache.tags.occ_blocks::.cpu.data  4085.720002                       # Average occupied blocks per requestor
system.cpu.dcache.tags.occ_percent::.cpu.data     0.997490                       # Average percentage of cache occupancy
system.cpu.dcache.tags.occ_percent::total     0.997490                       # Average percentage of cache occupancy
system.cpu.dcache.tags.occ_task_id_blocks::1024         4096                       # Occupied blocks per task id
system.cpu.dcache.tags.age_task_id_blocks_1024::0           35                       # Occupied blocks per task id
system.cpu.dcache.tags.age_task_id_blocks_1024::1          414                       # Occupied blocks per task id
system.cpu.dcache.tags.age_task_id_blocks_1024::2         3644                       # Occupied blocks per task id
system.cpu.dcache.tags.age_task_id_blocks_1024::3            3                       # Occupied blocks per task id
system.cpu.dcache.tags.occ_task_id_percent::1024            1                       # Percentage of cache occupancy per task id
system.cpu.dcache.tags.tag_accesses         578293946                       # Number of tag accesses
system.cpu.dcache.tags.data_accesses        578293946                       # Number of data accesses
system.cpu.dcache.tags.power_state.pwrStateResidencyTicks::UNDEFINED 137407868500                       # Cumulative time (in ticks) in various power states
system.cpu.dtb.rdAccesses                    26074093                       # TLB accesses on read requests
system.cpu.dtb.wrAccesses                    10058351                       # TLB accesses on write requests
system.cpu.dtb.rdMisses                          1987                       # TLB misses on read requests
system.cpu.dtb.wrMisses                          1560                       # TLB misses on write requests
system.cpu.dtb.walker.power_state.pwrStateResidencyTicks::UNDEFINED 137407868500                       # Cumulative time (in ticks) in various power states
system.cpu.dtb_walker_cache.blocked_cycles::no_mshrs            0                       # number of cycles access was blocked
system.cpu.dtb_walker_cache.blocked_cycles::no_targets            0                       # number of cycles access was blocked
system.cpu.dtb_walker_cache.blocked::no_mshrs            0                       # number of cycles access was blocked
system.cpu.dtb_walker_cache.blocked::no_targets            0                       # number of cycles access was blocked
system.cpu.dtb_walker_cache.avg_blocked_cycles::no_mshrs          nan                       # average number of cycles each access was blocked
system.cpu.dtb_walker_cache.avg_blocked_cycles::no_targets          nan                       # average number of cycles each access was blocked
system.cpu.dtb_walker_cache.replacements            0                       # number of replacements
system.cpu.dtb_walker_cache.power_state.pwrStateResidencyTicks::UNDEFINED 137407868500                       # Cumulative time (in ticks) in various power states
system.cpu.dtb_walker_cache.tags.tagsinuse            0                       # Cycle average of tags in use
system.cpu.dtb_walker_cache.tags.total_refs            0                       # Total number of references to valid blocks.
system.cpu.dtb_walker_cache.tags.sampled_refs            0                       # Sample count of references to valid blocks.
system.cpu.dtb_walker_cache.tags.avg_refs          nan                       # Average number of references to valid blocks.
system.cpu.dtb_walker_cache.tags.warmup_cycle            0                       # Cycle when the warmup percentage was hit.
system.cpu.dtb_walker_cache.tags.tag_accesses            0                       # Number of tag accesses
system.cpu.dtb_walker_cache.tags.data_accesses            0                       # Number of data accesses
system.cpu.dtb_walker_cache.tags.power_state.pwrStateResidencyTicks::UNDEFINED 137407868500                       # Cumulative time (in ticks) in various power states
system.cpu.icache.demand_hits::.cpu.inst     85584522                       # number of demand (read+write) hits
system.cpu.icache.demand_hits::total         85584522                       # number of demand (read+write) hits
system.cpu.icache.overall_hits::.cpu.inst     85584522                       # number of overall hits
system.cpu.icache.overall_hits::total        85584522                       # number of overall hits
system.cpu.icache.demand_misses::.cpu.inst         3974                       # number of demand (read+write) misses
system.cpu.icache.demand_misses::total           3974                       # number of demand (read+write) misses
system.cpu.icache.overall_misses::.cpu.inst         3974                       # number of overall misses
system.cpu.icache.overall_misses::total          3974                       # number of overall misses
system.cpu.icache.demand_miss_latency::.cpu.inst    314058000                       # number of demand (read+write) miss cycles
system.cpu.icache.demand_miss_latency::total    314058000                       # number of demand (read+write) miss cycles
system.cpu.icache.overall_miss_latency::.cpu.inst    314058000                       # number of overall miss cycles
system.cpu.icache.overall_miss_latency::total    314058000                       # number of overall miss cycles
system.cpu.icache.demand_accesses::.cpu.inst     85588496                       # number of demand (read+write) accesses
system.cpu.icache.demand_accesses::total     85588496                       # number of demand (read+write) accesses
system.cpu.icache.overall_accesses::.cpu.inst     85588496                       # number of overall (read+write) accesses
system.cpu.icache.overall_accesses::total     85588496                       # number of overall (read+write) accesses
system.cpu.icache.demand_miss_rate::.cpu.inst     0.000046                       # miss rate for demand accesses
system.cpu.icache.demand_miss_rate::total     0.000046                       # miss rate for demand accesses
system.cpu.icache.overall_miss_rate::.cpu.inst     0.000046                       # miss rate for overall accesses
system.cpu.icache.overall_miss_rate::total     0.000046                       # miss rate for overall accesses
system.cpu.icache.demand_avg_miss_latency::.cpu.inst 79028.183191                       # average overall miss latency
system.cpu.icache.demand_avg_miss_latency::total 79028.183191                       # average overall miss latency
system.cpu.icache.overall_avg_miss_latency::.cpu.inst 79028.183191                       # average overall miss latency
system.cpu.icache.overall_avg_miss_latency::total 79028.183191                       # average overall miss latency
system.cpu.icache.blocked_cycles::no_mshrs            0                       # number of cycles access was blocked
system.cpu.icache.blocked_cycles::no_targets            0                       # number of cycles access was blocked
system.cpu.icache.blocked::no_mshrs                 0                       # number of cycles access was blocked
system.cpu.icache.blocked::no_targets               0                       # number of cycles access was blocked
system.cpu.icache.avg_blocked_cycles::no_mshrs          nan                       # average number of cycles each access was blocked
system.cpu.icache.avg_blocked_cycles::no_targets          nan                       # average number of cycles each access was blocked
system.cpu.icache.writebacks::.writebacks          869                       # number of writebacks
system.cpu.icache.writebacks::total               869                       # number of writebacks
system.cpu.icache.demand_mshr_misses::.cpu.inst         3974                       # number of demand (read+write) MSHR misses
system.cpu.icache.demand_mshr_misses::total         3974                       # number of demand (read+write) MSHR misses
system.cpu.icache.overall_mshr_misses::.cpu.inst         3974                       # number of overall MSHR misses
system.cpu.icache.overall_mshr_misses::total         3974                       # number of overall MSHR misses
system.cpu.icache.demand_mshr_miss_latency::.cpu.inst    310084000                       # number of demand (read+write) MSHR miss cycles
system.cpu.icache.demand_mshr_miss_latency::total    310084000                       # number of demand (read+write) MSHR miss cycles
system.cpu.icache.overall_mshr_miss_latency::.cpu.inst    310084000                       # number of overall MSHR miss cycles
system.cpu.icache.overall_mshr_miss_latency::total    310084000                       # number of overall MSHR miss cycles
system.cpu.icache.demand_mshr_miss_rate::.cpu.inst     0.000046                       # mshr miss rate for demand accesses
system.cpu.icache.demand_mshr_miss_rate::total     0.000046                       # mshr miss rate for demand accesses
system.cpu.icache.overall_mshr_miss_rate::.cpu.inst     0.000046                       # mshr miss rate for overall accesses
system.cpu.icache.overall_mshr_miss_rate::total     0.000046                       # mshr miss rate for overall accesses
system.cpu.icache.demand_avg_mshr_miss_latency::.cpu.inst 78028.183191                       # average overall mshr miss latency
system.cpu.icache.demand_avg_mshr_miss_latency::total 78028.183191                       # average overall mshr miss latency
system.cpu.icache.overall_avg_mshr_miss_latency::.cpu.inst 78028.183191                       # average overall mshr miss latency
system.cpu.icache.overall_avg_mshr_miss_latency::total 78028.183191                       # average overall mshr miss latency
system.cpu.icache.replacements                    869                       # number of replacements
system.cpu.icache.ReadReq_hits::.cpu.inst     85584522                       # number of ReadReq hits
system.cpu.icache.ReadReq_hits::total        85584522                       # number of ReadReq hits
system.cpu.icache.ReadReq_misses::.cpu.inst         3974                       # number of ReadReq misses
system.cpu.icache.ReadReq_misses::total          3974                       # number of ReadReq misses
system.cpu.icache.ReadReq_miss_latency::.cpu.inst    314058000                       # number of ReadReq miss cycles
system.cpu.icache.ReadReq_miss_latency::total    314058000                       # number of ReadReq miss cycles
system.cpu.icache.ReadReq_accesses::.cpu.inst     85588496                       # number of ReadReq accesses(hits+misses)
system.cpu.icache.ReadReq_accesses::total     85588496                       # number of ReadReq accesses(hits+misses)
system.cpu.icache.ReadReq_miss_rate::.cpu.inst     0.000046                       # miss rate for ReadReq accesses
system.cpu.icache.ReadReq_miss_rate::total     0.000046                       # miss rate for ReadReq accesses
system.cpu.icache.ReadReq_avg_miss_latency::.cpu.inst 79028.183191                       # average ReadReq miss latency
system.cpu.icache.ReadReq_avg_miss_latency::total 79028.183191                       # average ReadReq miss latency
system.cpu.icache.ReadReq_mshr_misses::.cpu.inst         3974                       # number of ReadReq MSHR misses
system.cpu.icache.ReadReq_mshr_misses::total         3974                       # number of ReadReq MSHR misses
system.cpu.icache.ReadReq_mshr_miss_latency::.cpu.inst    310084000                       # number of ReadReq MSHR miss cycles
system.cpu.icache.ReadReq_mshr_miss_latency::total    310084000                       # number of ReadReq MSHR miss cycles
system.cpu.icache.ReadReq_mshr_miss_rate::.cpu.inst     0.000046                       # mshr miss rate for ReadReq accesses
system.cpu.icache.ReadReq_mshr_miss_rate::total     0.000046                       # mshr miss rate for ReadReq accesses
system.cpu.icache.ReadReq_avg_mshr_miss_latency::.cpu.inst 78028.183191                       # average ReadReq mshr miss latency
system.cpu.icache.ReadReq_avg_mshr_miss_latency::total 78028.183191                       # average ReadReq mshr miss latency
system.cpu.icache.power_state.pwrStateResidencyTicks::UNDEFINED 137407868500                       # Cumulative time (in ticks) in various power states
system.cpu.icache.tags.tagsinuse          2681.812657                       # Cycle average of tags in use
system.cpu.icache.tags.total_refs            85588496                       # Total number of references to valid blocks.
system.cpu.icache.tags.sampled_refs              3974                       # Sample count of references to valid blocks.
system.cpu.icache.tags.avg_refs          21537.115249                       # Average number of references to valid blocks.
system.cpu.icache.tags.warmup_cycle             87500                       # Cycle when the warmup percentage was hit.
system.cpu.icache.tags.occ_blocks::.cpu.inst  2681.812657                       # Average occupied blocks per requestor
system.cpu.icache.tags.occ_percent::.cpu.inst     0.654739                       # Average percentage of cache occupancy
system.cpu.icache.tags.occ_percent::total     0.654739                       # Average percentage of cache occupancy
system.cpu.icache.tags.occ_task_id_blocks::1024         3105                       # Occupied blocks per task id
system.cpu.icache.tags.age_task_id_blocks_1024::0           60                       # Occupied blocks per task id
system.cpu.icache.tags.age_task_id_blocks_1024::1          357                       # Occupied blocks per task id
system.cpu.icache.tags.age_task_id_blocks_1024::2           31                       # Occupied blocks per task id
system.cpu.icache.tags.age_task_id_blocks_1024::3          212                       # Occupied blocks per task id
system.cpu.icache.tags.age_task_id_blocks_1024::4         2445                       # Occupied blocks per task id
system.cpu.icache.tags.occ_task_id_percent::1024     0.758057                       # Percentage of cache occupancy per task id
system.cpu.icache.tags.tag_accesses         171180966                       # Number of tag accesses
system.cpu.icache.tags.data_accesses        171180966                       # Number of data accesses
system.cpu.icache.tags.power_state.pwrStateResidencyTicks::UNDEFINED 137407868500                       # Cumulative time (in ticks) in various power states
system.cpu.interrupts.clk_domain.clock           8000                       # Clock period in ticks
system.cpu.itb.rdAccesses                           0                       # TLB accesses on read requests
system.cpu.itb.wrAccesses                    85588625                       # TLB accesses on write requests
system.cpu.itb.rdMisses                             0                       # TLB misses on read requests
system.cpu.itb.wrMisses                           542                       # TLB misses on write requests
system.cpu.itb.walker.power_state.pwrStateResidencyTicks::UNDEFINED 137407868500                       # Cumulative time (in ticks) in various power states
system.cpu.itb_walker_cache.blocked_cycles::no_mshrs            0                       # number of cycles access was blocked
system.cpu.itb_walker_cache.blocked_cycles::no_targets            0                       # number of cycles access was blocked
system.cpu.itb_walker_cache.blocked::no_mshrs            0                       # number of cycles access was blocked
system.cpu.itb_walker_cache.blocked::no_targets            0                       # number of cycles access was blocked
system.cpu.itb_walker_cache.avg_blocked_cycles::no_mshrs          nan                       # average number of cycles each access was blocked
system.cpu.itb_walker_cache.avg_blocked_cycles::no_targets          nan                       # average number of cycles each access was blocked
system.cpu.itb_walker_cache.replacements            0                       # number of replacements
system.cpu.itb_walker_cache.power_state.pwrStateResidencyTicks::UNDEFINED 137407868500                       # Cumulative time (in ticks) in various power states
system.cpu.itb_walker_cache.tags.tagsinuse            0                       # Cycle average of tags in use
system.cpu.itb_walker_cache.tags.total_refs            0                       # Total number of references to valid blocks.
system.cpu.itb_walker_cache.tags.sampled_refs            0                       # Sample count of references to valid blocks.
system.cpu.itb_walker_cache.tags.avg_refs          nan                       # Average number of references to valid blocks.
system.cpu.itb_walker_cache.tags.warmup_cycle            0                       # Cycle when the warmup percentage was hit.
system.cpu.itb_walker_cache.tags.tag_accesses            0                       # Number of tag accesses
system.cpu.itb_walker_cache.tags.data_accesses            0                       # Number of data accesses
system.cpu.itb_walker_cache.tags.power_state.pwrStateResidencyTicks::UNDEFINED 137407868500                       # Cumulative time (in ticks) in various power states
system.cpu.power_state.pwrStateResidencyTicks::ON 137407868500                       # Cumulative time (in ticks) in various power states
system.cpu.thread_0.numInsts                        0                       # Number of Instructions committed
system.cpu.thread_0.numOps                          0                       # Number of Ops committed
system.cpu.thread_0.numMemRefs                      0                       # Number of Memory References
system.cpu_clk_domain.clock                       500                       # Clock period in ticks
system.cpu_voltage_domain.voltage                   1                       # Voltage in Volts
system.l2.demand_hits::.cpu.inst                   21                       # number of demand (read+write) hits
system.l2.demand_hits::.cpu.data                 5313                       # number of demand (read+write) hits
system.l2.demand_hits::total                     5334                       # number of demand (read+write) hits
system.l2.overall_hits::.cpu.inst                  21                       # number of overall hits
system.l2.overall_hits::.cpu.data                5313                       # number of overall hits
system.l2.overall_hits::total                    5334                       # number of overall hits
system.l2.demand_misses::.cpu.inst               3953                       # number of demand (read+write) misses
system.l2.demand_misses::.cpu.data             185049                       # number of demand (read+write) misses
system.l2.demand_misses::total                 189002                       # number of demand (read+write) misses
system.l2.overall_misses::.cpu.inst              3953                       # number of overall misses
system.l2.overall_misses::.cpu.data            185049                       # number of overall misses
system.l2.overall_misses::total                189002                       # number of overall misses
system.l2.demand_miss_latency::.cpu.inst    303902500                       # number of demand (read+write) miss cycles
system.l2.demand_miss_latency::.cpu.data  15071322000                       # number of demand (read+write) miss cycles
system.l2.demand_miss_latency::total      15375224500                       # number of demand (read+write) miss cycles
system.l2.overall_miss_latency::.cpu.inst    303902500                       # number of overall miss cycles
system.l2.overall_miss_latency::.cpu.data  15071322000                       # number of overall miss cycles
system.l2.overall_miss_latency::total     15375224500                       # number of overall miss cycles
system.l2.demand_accesses::.cpu.inst             3974                       # number of demand (read+write) accesses
system.l2.demand_accesses::.cpu.data           190362                       # number of demand (read+write) accesses
system.l2.demand_accesses::total               194336                       # number of demand (read+write) accesses
system.l2.overall_accesses::.cpu.inst            3974                       # number of overall (read+write) accesses
system.l2.overall_accesses::.cpu.data          190362                       # number of overall (read+write) accesses
system.l2.overall_accesses::total              194336                       # number of overall (read+write) accesses
system.l2.demand_miss_rate::.cpu.inst        0.994716                       # miss rate for demand accesses
system.l2.demand_miss_rate::.cpu.data        0.972090                       # miss rate for demand accesses
system.l2.demand_miss_rate::total            0.972553                       # miss rate for demand accesses
system.l2.overall_miss_rate::.cpu.inst       0.994716                       # miss rate for overall accesses
system.l2.overall_miss_rate::.cpu.data       0.972090                       # miss rate for overall accesses
system.l2.overall_miss_rate::total           0.972553                       # miss rate for overall accesses
system.l2.demand_avg_miss_latency::.cpu.inst 76878.952694                       # average overall miss latency
system.l2.demand_avg_miss_latency::.cpu.data 81445.033478                       # average overall miss latency
system.l2.demand_avg_miss_latency::total 81349.533338                       # average overall miss latency
system.l2.overall_avg_miss_latency::.cpu.inst 76878.952694                       # average overall miss latency
system.l2.overall_avg_miss_latency::.cpu.data 81445.033478                       # average overall miss latency
system.l2.overall_avg_miss_latency::total 81349.533338                       # average overall miss latency
system.l2.blocked_cycles::no_mshrs                  0                       # number of cycles access was blocked
system.l2.blocked_cycles::no_targets                0                       # number of cycles access was blocked
system.l2.blocked::no_mshrs                         0                       # number of cycles access was blocked
system.l2.blocked::no_targets                       0                       # number of cycles access was blocked
system.l2.avg_blocked_cycles::no_mshrs            nan                       # average number of cycles each access was blocked
system.l2.avg_blocked_cycles::no_targets          nan                       # average number of cycles each access was blocked
system.l2.writebacks::.writebacks              146071                       # number of writebacks
system.l2.writebacks::total                    146071                       # number of writebacks
system.l2.demand_mshr_misses::.cpu.inst          3953                       # number of demand (read+write) MSHR misses
system.l2.demand_mshr_misses::.cpu.data        185049                       # number of demand (read+write) MSHR misses
system.l2.demand_mshr_misses::total            189002                       # number of demand (read+write) MSHR misses
system.l2.overall_mshr_misses::.cpu.inst         3953                       # number of overall MSHR misses
system.l2.overall_mshr_misses::.cpu.data       185049                       # number of overall MSHR misses
system.l2.overall_mshr_misses::total           189002                       # number of overall MSHR misses
system.l2.demand_mshr_miss_latency::.cpu.inst    264372500                       # number of demand (read+write) MSHR miss cycles
system.l2.demand_mshr_miss_latency::.cpu.data  13220832000                       # number of demand (read+write) MSHR miss cycles
system.l2.demand_mshr_miss_latency::total  13485204500                       # number of demand (read+write) MSHR miss cycles
system.l2.overall_mshr_miss_latency::.cpu.inst    264372500                       # number of overall MSHR miss cycles
system.l2.overall_mshr_miss_latency::.cpu.data  13220832000                       # number of overall MSHR miss cycles
system.l2.overall_mshr_miss_latency::total  13485204500                       # number of overall MSHR miss cycles
system.l2.demand_mshr_miss_rate::.cpu.inst     0.994716                       # mshr miss rate for demand accesses
system.l2.demand_mshr_miss_rate::.cpu.data     0.972090                       # mshr miss rate for demand accesses
system.l2.demand_mshr_miss_rate::total       0.972553                       # mshr miss rate for demand accesses
system.l2.overall_mshr_miss_rate::.cpu.inst     0.994716                       # mshr miss rate for overall accesses
system.l2.overall_mshr_miss_rate::.cpu.data     0.972090                       # mshr miss rate for overall accesses
system.l2.overall_mshr_miss_rate::total      0.972553                       # mshr miss rate for overall accesses
system.l2.demand_avg_mshr_miss_latency::.cpu.inst 66878.952694                       # average overall mshr miss latency
system.l2.demand_avg_mshr_miss_latency::.cpu.data 71445.033478                       # average overall mshr miss latency
system.l2.demand_avg_mshr_miss_latency::total 71349.533338                       # average overall mshr miss latency
system.l2.overall_avg_mshr_miss_latency::.cpu.inst 66878.952694                       # average overall mshr miss latency
system.l2.overall_avg_mshr_miss_latency::.cpu.data 71445.033478                       # average overall mshr miss latency
system.l2.overall_avg_mshr_miss_latency::total 71349.533338                       # average overall mshr miss latency
system.l2.replacements                         328943                       # number of replacements
system.l2.WritebackDirty_hits::.writebacks       153272                       # number of WritebackDirty hits
system.l2.WritebackDirty_hits::total           153272                       # number of WritebackDirty hits
system.l2.WritebackDirty_accesses::.writebacks       153272                       # number of WritebackDirty accesses(hits+misses)
system.l2.WritebackDirty_accesses::total       153272                       # number of WritebackDirty accesses(hits+misses)
system.l2.WritebackClean_hits::.writebacks          869                       # number of WritebackClean hits
system.l2.WritebackClean_hits::total              869                       # number of WritebackClean hits
system.l2.WritebackClean_accesses::.writebacks          869                       # number of WritebackClean accesses(hits+misses)
system.l2.WritebackClean_accesses::total          869                       # number of WritebackClean accesses(hits+misses)
system.l2.CleanEvict_mshr_misses::.writebacks        27101                       # number of CleanEvict MSHR misses
system.l2.CleanEvict_mshr_misses::total         27101                       # number of CleanEvict MSHR misses
system.l2.CleanEvict_mshr_miss_rate::.writebacks          inf                       # mshr miss rate for CleanEvict accesses
system.l2.CleanEvict_mshr_miss_rate::total          inf                       # mshr miss rate for CleanEvict accesses
system.l2.ReadExReq_hits::.cpu.data               302                       # number of ReadExReq hits
system.l2.ReadExReq_hits::total                   302                       # number of ReadExReq hits
system.l2.ReadExReq_misses::.cpu.data          110592                       # number of ReadExReq misses
system.l2.ReadExReq_misses::total              110592                       # number of ReadExReq misses
system.l2.ReadExReq_miss_latency::.cpu.data   8391622000                       # number of ReadExReq miss cycles
system.l2.ReadExReq_miss_latency::total    8391622000                       # number of ReadExReq miss cycles
system.l2.ReadExReq_accesses::.cpu.data        110894                       # number of ReadExReq accesses(hits+misses)
system.l2.ReadExReq_accesses::total            110894                       # number of ReadExReq accesses(hits+misses)
system.l2.ReadExReq_miss_rate::.cpu.data     0.997277                       # miss rate for ReadExReq accesses
system.l2.ReadExReq_miss_rate::total         0.997277                       # miss rate for ReadExReq accesses
system.l2.ReadExReq_avg_miss_latency::.cpu.data 75879.105179                       # average ReadExReq miss latency
system.l2.ReadExReq_avg_miss_latency::total 75879.105179                       # average ReadExReq miss latency
system.l2.ReadExReq_mshr_misses::.cpu.data       110592                       # number of ReadExReq MSHR misses
system.l2.ReadExReq_mshr_misses::total         110592                       # number of ReadExReq MSHR misses
system.l2.ReadExReq_mshr_miss_latency::.cpu.data   7285702000                       # number of ReadExReq MSHR miss cycles
system.l2.ReadExReq_mshr_miss_latency::total   7285702000                       # number of ReadExReq MSHR miss cycles
system.l2.ReadExReq_mshr_miss_rate::.cpu.data     0.997277                       # mshr miss rate for ReadExReq accesses
system.l2.ReadExReq_mshr_miss_rate::total     0.997277                       # mshr miss rate for ReadExReq accesses
system.l2.ReadExReq_avg_mshr_miss_latency::.cpu.data 65879.105179                       # average ReadExReq mshr miss latency
system.l2.ReadExReq_avg_mshr_miss_latency::total 65879.105179                       # average ReadExReq mshr miss latency
system.l2.ReadCleanReq_hits::.cpu.inst             21                       # number of ReadCleanReq hits
system.l2.ReadCleanReq_hits::total                 21                       # number of ReadCleanReq hits
system.l2.ReadCleanReq_misses::.cpu.inst         3953                       # number of ReadCleanReq misses
system.l2.ReadCleanReq_misses::total             3953                       # number of ReadCleanReq misses
system.l2.ReadCleanReq_miss_latency::.cpu.inst    303902500                       # number of ReadCleanReq miss cycles
system.l2.ReadCleanReq_miss_latency::total    303902500                       # number of ReadCleanReq miss cycles
system.l2.ReadCleanReq_accesses::.cpu.inst         3974                       # number of ReadCleanReq accesses(hits+misses)
system.l2.ReadCleanReq_accesses::total           3974                       # number of ReadCleanReq accesses(hits+misses)
system.l2.ReadCleanReq_miss_rate::.cpu.inst     0.994716                       # miss rate for ReadCleanReq accesses
system.l2.ReadCleanReq_miss_rate::total      0.994716                       # miss rate for ReadCleanReq accesses
system.l2.ReadCleanReq_avg_miss_latency::.cpu.inst 76878.952694                       # average ReadCleanReq miss latency
system.l2.ReadCleanReq_avg_miss_latency::total 76878.952694                       # average ReadCleanReq miss latency
system.l2.ReadCleanReq_mshr_misses::.cpu.inst         3953                       # number of ReadCleanReq MSHR misses
system.l2.ReadCleanReq_mshr_misses::total         3953                       # number of ReadCleanReq MSHR misses
system.l2.ReadCleanReq_mshr_miss_latency::.cpu.inst    264372500                       # number of ReadCleanReq MSHR miss cycles
system.l2.ReadCleanReq_mshr_miss_latency::total    264372500                       # number of ReadCleanReq MSHR miss cycles
system.l2.ReadCleanReq_mshr_miss_rate::.cpu.inst     0.994716                       # mshr miss rate for ReadCleanReq accesses
system.l2.ReadCleanReq_mshr_miss_rate::total     0.994716                       # mshr miss rate for ReadCleanReq accesses
system.l2.ReadCleanReq_avg_mshr_miss_latency::.cpu.inst 66878.952694                       # average ReadCleanReq mshr miss latency
system.l2.ReadCleanReq_avg_mshr_miss_latency::total 66878.952694                       # average ReadCleanReq mshr miss latency
system.l2.ReadSharedReq_hits::.cpu.data          5011                       # number of ReadSharedReq hits
system.l2.ReadSharedReq_hits::total              5011                       # number of ReadSharedReq hits
system.l2.ReadSharedReq_misses::.cpu.data        74457                       # number of ReadSharedReq misses
system.l2.ReadSharedReq_misses::total           74457                       # number of ReadSharedReq misses
system.l2.ReadSharedReq_miss_latency::.cpu.data   6679700000                       # number of ReadSharedReq miss cycles
system.l2.ReadSharedReq_miss_latency::total   6679700000                       # number of ReadSharedReq miss cycles
system.l2.ReadSharedReq_accesses::.cpu.data        79468                       # number of ReadSharedReq accesses(hits+misses)
system.l2.ReadSharedReq_accesses::total         79468                       # number of ReadSharedReq accesses(hits+misses)
system.l2.ReadSharedReq_miss_rate::.cpu.data     0.936943                       # miss rate for ReadSharedReq accesses
system.l2.ReadSharedReq_miss_rate::total     0.936943                       # miss rate for ReadSharedReq accesses
system.l2.ReadSharedReq_avg_miss_latency::.cpu.data 89712.182871                       # average ReadSharedReq miss latency
system.l2.ReadSharedReq_avg_miss_latency::total 89712.182871                       # average ReadSharedReq miss latency
system.l2.ReadSharedReq_mshr_misses::.cpu.data        74457                       # number of ReadSharedReq MSHR misses
system.l2.ReadSharedReq_mshr_misses::total        74457                       # number of ReadSharedReq MSHR misses
system.l2.ReadSharedReq_mshr_miss_latency::.cpu.data   5935130000                       # number of ReadSharedReq MSHR miss cycles
system.l2.ReadSharedReq_mshr_miss_latency::total   5935130000                       # number of ReadSharedReq MSHR miss cycles
system.l2.ReadSharedReq_mshr_miss_rate::.cpu.data     0.936943                       # mshr miss rate for ReadSharedReq accesses
system.l2.ReadSharedReq_mshr_miss_rate::total     0.936943                       # mshr miss rate for ReadSharedReq accesses
system.l2.ReadSharedReq_avg_mshr_miss_latency::.cpu.data 79712.182871                       # average ReadSharedReq mshr miss latency
system.l2.ReadSharedReq_avg_mshr_miss_latency::total 79712.182871                       # average ReadSharedReq mshr miss latency
system.l2.power_state.pwrStateResidencyTicks::UNDEFINED 137407868500                       # Cumulative time (in ticks) in various power states
system.l2.tags.tagsinuse                  4085.912923                       # Cycle average of tags in use
system.l2.tags.total_refs                      354370                       # Total number of references to valid blocks.
system.l2.tags.sampled_refs                    333039                       # Sample count of references to valid blocks.
system.l2.tags.avg_refs                      1.064050                       # Average number of references to valid blocks.
system.l2.tags.warmup_cycle                     77000                       # Cycle when the warmup percentage was hit.
system.l2.tags.occ_blocks::.writebacks    1818.455468                       # Average occupied blocks per requestor
system.l2.tags.occ_blocks::.cpu.inst        28.897000                       # Average occupied blocks per requestor
system.l2.tags.occ_blocks::.cpu.data      2238.560454                       # Average occupied blocks per requestor
system.l2.tags.occ_percent::.writebacks      0.443959                       # Average percentage of cache occupancy
system.l2.tags.occ_percent::.cpu.inst        0.007055                       # Average percentage of cache occupancy
system.l2.tags.occ_percent::.cpu.data        0.546524                       # Average percentage of cache occupancy
system.l2.tags.occ_percent::total            0.997537                       # Average percentage of cache occupancy
system.l2.tags.occ_task_id_blocks::1024          4096                       # Occupied blocks per task id
system.l2.tags.age_task_id_blocks_1024::0          166                       # Occupied blocks per task id
system.l2.tags.age_task_id_blocks_1024::1         1191                       # Occupied blocks per task id
system.l2.tags.age_task_id_blocks_1024::2         2739                       # Occupied blocks per task id
system.l2.tags.occ_task_id_percent::1024            1                       # Percentage of cache occupancy per task id
system.l2.tags.tag_accesses                   1095981                       # Number of tag accesses
system.l2.tags.data_accesses                  1095981                       # Number of data accesses
system.l2.tags.power_state.pwrStateResidencyTicks::UNDEFINED 137407868500                       # Cumulative time (in ticks) in various power states
system.mem_ctrls.avgPriority_.writebacks::samples     78104.00                       # Average QoS priority value for accepted requests
system.mem_ctrls.avgPriority_.cpu.inst::samples      3953.00                       # Average QoS priority value for accepted requests
system.mem_ctrls.avgPriority_.cpu.data::samples    184761.00                       # Average QoS priority value for accepted requests
system.mem_ctrls.priorityMinLatency      0.000000018750                       # per QoS priority minimum request to response latency (s)
system.mem_ctrls.priorityMaxLatency      0.032552496500                       # per QoS priority maximum request to response latency (s)
system.mem_ctrls.numReadWriteTurnArounds         4406                       # Number of turnarounds from READ to WRITE
system.mem_ctrls.numWriteReadTurnArounds         4406                       # Number of turnarounds from WRITE to READ
system.mem_ctrls.numStayReadState              557344                       # Number of times bus staying in READ state
system.mem_ctrls.numStayWriteState              73769                       # Number of times bus staying in WRITE state
system.mem_ctrls.readReqs                      189002                       # Number of read requests accepted
system.mem_ctrls.writeReqs                     146071                       # Number of write requests accepted
system.mem_ctrls.readBursts                    189002                       # Number of controller read bursts, including those serviced by the write queue
system.mem_ctrls.writeBursts                   146071                       # Number of controller write bursts, including those merged in the write queue
system.mem_ctrls.servicedByWrQ                    288                       # Number of controller read bursts serviced by the write queue
system.mem_ctrls.mergedWrBursts                 67967                       # Number of controller write bursts merged with an existing one
system.mem_ctrls.neitherReadNorWriteReqs            0                       # Number of requests that are neither read nor write
system.mem_ctrls.avgRdQLen                       1.00                       # Average read queue length when enqueuing
system.mem_ctrls.avgWrQLen                      25.54                       # Average write queue length when enqueuing
system.mem_ctrls.numRdRetry                         0                       # Number of times read queue was full causing retry
system.mem_ctrls.numWrRetry                         0                       # Number of times write queue was full causing retry
system.mem_ctrls.readPktSize::0                     0                       # Read request sizes (log2)
system.mem_ctrls.readPktSize::1                     0                       # Read request sizes (log2)
system.mem_ctrls.readPktSize::2                     0                       # Read request sizes (log2)
system.mem_ctrls.readPktSize::3                     0                       # Read request sizes (log2)
system.mem_ctrls.readPktSize::4                     0                       # Read request sizes (log2)
system.mem_ctrls.readPktSize::5                189002                       # Read request sizes (log2)
system.mem_ctrls.writePktSize::0                    0                       # Write request sizes (log2)
system.mem_ctrls.writePktSize::1                    0                       # Write request sizes (log2)
system.mem_ctrls.writePktSize::2                    0                       # Write request sizes (log2)
system.mem_ctrls.writePktSize::3                    0                       # Write request sizes (log2)
system.mem_ctrls.writePktSize::4                    0                       # Write request sizes (log2)
system.mem_ctrls.writePktSize::5               146071                       # Write request sizes (log2)
system.mem_ctrls.rdQLenPdf::0                  188692                       # What read queue length does an incoming req see
system.mem_ctrls.rdQLenPdf::1                      22                       # What read queue length does an incoming req see
system.mem_ctrls.rdQLenPdf::2                       0                       # What read queue length does an incoming req see
system.mem_ctrls.rdQLenPdf::3                       0                       # What read queue length does an incoming req see
system.mem_ctrls.rdQLenPdf::4                       0                       # What read queue length does an incoming req see
system.mem_ctrls.rdQLenPdf::5                       0                       # What read queue length does an incoming req see
system.mem_ctrls.rdQLenPdf::6                       0                       # What read queue length does an incoming req see
system.mem_ctrls.rdQLenPdf::7                       0                       # What read queue length does an incoming req see
system.mem_ctrls.rdQLenPdf::8                       0                       # What read queue length does an incoming req see
system.mem_ctrls.rdQLenPdf::9                       0                       # What read queue length does an incoming req see
system.mem_ctrls.rdQLenPdf::10                      0                       # What read queue length does an incoming req see
system.mem_ctrls.rdQLenPdf::11                      0                       # What read queue length does an incoming req see
system.mem_ctrls.rdQLenPdf::12                      0                       # What read queue length does an incoming req see
system.mem_ctrls.rdQLenPdf::13                      0                       # What read queue length does an incoming req see
system.mem_ctrls.rdQLenPdf::14                      0                       # What read queue length does an incoming req see
system.mem_ctrls.rdQLenPdf::15                      0                       # What read queue length does an incoming req see
system.mem_ctrls.rdQLenPdf::16                      0                       # What read queue length does an incoming req see
system.mem_ctrls.rdQLenPdf::17                      0                       # What read queue length does an incoming req see
system.mem_ctrls.rdQLenPdf::18                      0                       # What read queue length does an incoming req see
system.mem_ctrls.rdQLenPdf::19                      0                       # What read queue length does an incoming req see
system.mem_ctrls.rdQLenPdf::20                      0                       # What read queue length does an incoming req see
system.mem_ctrls.rdQLenPdf::21                      0                       # What read queue length does an incoming req see
system.mem_ctrls.rdQLenPdf::22                      0                       # What read queue length does an incoming req see
system.mem_ctrls.rdQLenPdf::23                      0                       # What read queue length does an incoming req see
system.mem_ctrls.rdQLenPdf::24                      0                       # What read queue length does an incoming req see
system.mem_ctrls.rdQLenPdf::25                      0                       # What read queue length does an incoming req see
system.mem_ctrls.rdQLenPdf::26                      0                       # What read queue length does an incoming req see
system.mem_ctrls.rdQLenPdf::27                      0                       # What read queue length does an incoming req see
system.mem_ctrls.rdQLenPdf::28                      0                       # What read queue length does an incoming req see
system.mem_ctrls.rdQLenPdf::29                      0                       # What read queue length does an incoming req see
system.mem_ctrls.rdQLenPdf::30                      0                       # What read queue length does an incoming req see
system.mem_ctrls.rdQLenPdf::31                      0                       # What read queue length does an incoming req see
system.mem_ctrls.wrQLenPdf::0                       1                       # What write queue length does an incoming req see
system.mem_ctrls.wrQLenPdf::1                       1                       # What write queue length does an incoming req see
system.mem_ctrls.wrQLenPdf::2                       1                       # What write queue length does an incoming req see
system.mem_ctrls.wrQLenPdf::3                       1                       # What write queue length does an incoming req see
system.mem_ctrls.wrQLenPdf::4                       1                       # What write queue length does an incoming req see
system.mem_ctrls.wrQLenPdf::5                       1                       # What write queue length does an incoming req see
system.mem_ctrls.wrQLenPdf::6                       1                       # What write queue length does an incoming req see
system.mem_ctrls.wrQLenPdf::7                       1                       # What write queue length does an incoming req see
system.mem_ctrls.wrQLenPdf::8                       1                       # What write queue length does an incoming req see
system.mem_ctrls.wrQLenPdf::9                       1                       # What write queue length does an incoming req see
system.mem_ctrls.wrQLenPdf::10                      1                       # What write queue length does an incoming req see
system.mem_ctrls.wrQLenPdf::11                      1                       # What write queue length does an incoming req see
system.mem_ctrls.wrQLenPdf::12                      1                       # What write queue length does an incoming req see
system.mem_ctrls.wrQLenPdf::13                      1                       # What write queue length does an incoming req see
system.mem_ctrls.wrQLenPdf::14                      1                       # What write queue length does an incoming req see
system.mem_ctrls.wrQLenPdf::15                   3671                       # What write queue length does an incoming req see
system.mem_ctrls.wrQLenPdf::16                   3719                       # What write queue length does an incoming req see
system.mem_ctrls.wrQLenPdf::17                   4297                       # What write queue length does an incoming req see
system.mem_ctrls.wrQLenPdf::18                   4408                       # What write queue length does an incoming req see
system.mem_ctrls.wrQLenPdf::19                   4410                       # What write queue length does an incoming req see
system.mem_ctrls.wrQLenPdf::20                   4407                       # What write queue length does an incoming req see
system.mem_ctrls.wrQLenPdf::21                   4407                       # What write queue length does an incoming req see
system.mem_ctrls.wrQLenPdf::22                   4407                       # What write queue length does an incoming req see
system.mem_ctrls.wrQLenPdf::23                   4445                       # What write queue length does an incoming req see
system.mem_ctrls.wrQLenPdf::24                   4411                       # What write queue length does an incoming req see
system.mem_ctrls.wrQLenPdf::25                   4634                       # What write queue length does an incoming req see
system.mem_ctrls.wrQLenPdf::26                   4430                       # What write queue length does an incoming req see
system.mem_ctrls.wrQLenPdf::27                   4409                       # What write queue length does an incoming req see
system.mem_ctrls.wrQLenPdf::28                   4407                       # What write queue length does an incoming req see
system.mem_ctrls.wrQLenPdf::29                   4407                       # What write queue length does an incoming req see
system.mem_ctrls.wrQLenPdf::30                   4406                       # What write queue length does an incoming req see
system.mem_ctrls.wrQLenPdf::31                   4406                       # What write queue length does an incoming req see
system.mem_ctrls.wrQLenPdf::32                   4406                       # What write queue length does an incoming req see
system.mem_ctrls.wrQLenPdf::33                      2                       # What write queue length does an incoming req see
system.mem_ctrls.wrQLenPdf::34                      0                       # What write queue length does an incoming req see
system.mem_ctrls.wrQLenPdf::35                      0                       # What write queue length does an incoming req see
system.mem_ctrls.wrQLenPdf::36                      0                       # What write queue length does an incoming req see
system.mem_ctrls.wrQLenPdf::37                      0                       # What write queue length does an incoming req see
system.mem_ctrls.wrQLenPdf::38                      0                       # What write queue length does an incoming req see
system.mem_ctrls.wrQLenPdf::39                      0                       # What write queue length does an incoming req see
system.mem_ctrls.wrQLenPdf::40                      0                       # What write queue length does an incoming req see
system.mem_ctrls.wrQLenPdf::41                      0                       # What write queue length does an incoming req see
system.mem_ctrls.wrQLenPdf::42                      0                       # What write queue length does an incoming req see
system.mem_ctrls.wrQLenPdf::43                      0                       # What write queue length does an incoming req see
system.mem_ctrls.wrQLenPdf::44                      0                       # What write queue length does an incoming req see
system.mem_ctrls.wrQLenPdf::45                      0                       # What write queue length does an incoming req see
system.mem_ctrls.wrQLenPdf::46                      0                       # What write queue length does an incoming req see
system.mem_ctrls.wrQLenPdf::47                      0                       # What write queue length does an incoming req see
system.mem_ctrls.wrQLenPdf::48                      0                       # What write queue length does an incoming req see
system.mem_ctrls.wrQLenPdf::49                      0                       # What write queue length does an incoming req see
system.mem_ctrls.wrQLenPdf::50                      0                       # What write queue length does an incoming req see
system.mem_ctrls.wrQLenPdf::51                      0                       # What write queue length does an incoming req see
system.mem_ctrls.wrQLenPdf::52                      0                       # What write queue length does an incoming req see
system.mem_ctrls.wrQLenPdf::53                      0                       # What write queue length does an incoming req see
system.mem_ctrls.wrQLenPdf::54                      0                       # What write queue length does an incoming req see
system.mem_ctrls.wrQLenPdf::55                      0                       # What write queue length does an incoming req see
system.mem_ctrls.wrQLenPdf::56                      0                       # What write queue length does an incoming req see
system.mem_ctrls.wrQLenPdf::57                      0                       # What write queue length does an incoming req see
system.mem_ctrls.wrQLenPdf::58                      0                       # What write queue length does an incoming req see
system.mem_ctrls.wrQLenPdf::59                      0                       # What write queue length does an incoming req see
system.mem_ctrls.wrQLenPdf::60                      0                       # What write queue length does an incoming req see
system.mem_ctrls.wrQLenPdf::61                      0                       # What write queue length does an incoming req see
system.mem_ctrls.wrQLenPdf::62                      0                       # What write queue length does an incoming req see
system.mem_ctrls.wrQLenPdf::63                      0                       # What write queue length does an incoming req see
system.mem_ctrls.rdPerTurnAround::samples         4406                       # Reads before turning the bus around for writes
system.mem_ctrls.rdPerTurnAround::mean      42.826146                       # Reads before turning the bus around for writes
system.mem_ctrls.rdPerTurnAround::stdev    131.985318                       # Reads before turning the bus around for writes
system.mem_ctrls.rdPerTurnAround::0-255          4386     99.55%     99.55% # Reads before turning the bus around for writes
system.mem_ctrls.rdPerTurnAround::256-511           12      0.27%     99.82% # Reads before turning the bus around for writes
system.mem_ctrls.rdPerTurnAround::512-767            4      0.09%     99.91% # Reads before turning the bus around for writes
system.mem_ctrls.rdPerTurnAround::768-1023            1      0.02%     99.93% # Reads before turning the bus around for writes
system.mem_ctrls.rdPerTurnAround::1024-1279            1      0.02%     99.95% # Reads before turning the bus around for writes
system.mem_ctrls.rdPerTurnAround::5632-5887            1      0.02%     99.98% # Reads before turning the bus around for writes
system.mem_ctrls.rdPerTurnAround::6144-6399            1      0.02%    100.00% # Reads before turning the bus around for writes
system.mem_ctrls.rdPerTurnAround::total          4406                       # Reads before turning the bus around for writes
system.mem_ctrls.wrPerTurnAround::samples         4406                       # Writes before turning the bus around for reads
system.mem_ctrls.wrPerTurnAround::mean      17.720154                       # Writes before turning the bus around for reads
system.mem_ctrls.wrPerTurnAround::gmean     17.702426                       # Writes before turning the bus around for reads
system.mem_ctrls.wrPerTurnAround::stdev      0.774736                       # Writes before turning the bus around for reads
system.mem_ctrls.wrPerTurnAround::16              688     15.62%     15.62% # Writes before turning the bus around for reads
system.mem_ctrls.wrPerTurnAround::17               47      1.07%     16.68% # Writes before turning the bus around for reads
system.mem_ctrls.wrPerTurnAround::18             3481     79.01%     95.69% # Writes before turning the bus around for reads
system.mem_ctrls.wrPerTurnAround::19              190      4.31%    100.00% # Writes before turning the bus around for reads
system.mem_ctrls.wrPerTurnAround::total          4406                       # Writes before turning the bus around for reads
system.mem_ctrls.bytesReadWrQ                   18432                       # Total number of bytes read from write queue
system.mem_ctrls.bytesReadSys                 6048064                       # Total read bytes from the system interface side
system.mem_ctrls.bytesWrittenSys              4674272                       # Total written bytes from the system interface side
system.mem_ctrls.avgRdBWSys                     44.02                       # Average system read bandwidth in MiByte/s
system.mem_ctrls.avgWrBWSys                     34.02                       # Average system write bandwidth in MiByte/s
system.mem_ctrls.totGap                  137407794500                       # Total gap between requests
system.mem_ctrls.avgGap                     410083.16                       # Average gap between requests
system.mem_ctrls.requestorReadBytes::.cpu.inst       126496                       # Per-requestor bytes read from memory
[...]
system.mem_ctrls.dram.bw_total::.cpu.data     43094825                       # Total bandwidth to/from this memory (bytes/s)
system.mem_ctrls.dram.bw_total::total        78032911                       # Total bandwidth to/from this memory (bytes/s)
system.mem_ctrls.dram.readBursts               188714                       # Number of DRAM read bursts
system.mem_ctrls.dram.writeBursts               78075                       # Number of DRAM write bursts
system.mem_ctrls.dram.perBankRdBursts::0        12171                       # Per bank write bursts
system.mem_ctrls.dram.perBankRdBursts::1        12179                       # Per bank write bursts
system.mem_ctrls.dram.perBankRdBursts::2        11859                       # Per bank write bursts
system.mem_ctrls.dram.perBankRdBursts::3        12707                       # Per bank write bursts
system.mem_ctrls.dram.perBankRdBursts::4        11635                       # Per bank write bursts
system.mem_ctrls.dram.perBankRdBursts::5        11373                       # Per bank write bursts
system.mem_ctrls.dram.perBankRdBursts::6        10904                       # Per bank write bursts
system.mem_ctrls.dram.perBankRdBursts::7        11709                       # Per bank write bursts
system.mem_ctrls.dram.perBankRdBursts::8        12163                       # Per bank write bursts
system.mem_ctrls.dram.perBankRdBursts::9        12633                       # Per bank write bursts
system.mem_ctrls.dram.perBankRdBursts::10        12377                       # Per bank write bursts
system.mem_ctrls.dram.perBankRdBursts::11        11501                       # Per bank write bursts
system.mem_ctrls.dram.perBankRdBursts::12        11283                       # Per bank write bursts
system.mem_ctrls.dram.perBankRdBursts::13        11019                       # Per bank write bursts
system.mem_ctrls.dram.perBankRdBursts::14        11370                       # Per bank write bursts
system.mem_ctrls.dram.perBankRdBursts::15        11831                       # Per bank write bursts
system.mem_ctrls.dram.perBankWrBursts::0         5040                       # Per bank write bursts
system.mem_ctrls.dram.perBankWrBursts::1         5007                       # Per bank write bursts
system.mem_ctrls.dram.perBankWrBursts::2         4965                       # Per bank write bursts
system.mem_ctrls.dram.perBankWrBursts::3         5080                       # Per bank write bursts
system.mem_ctrls.dram.perBankWrBursts::4         4671                       # Per bank write bursts
system.mem_ctrls.dram.perBankWrBursts::5         4710                       # Per bank write bursts
system.mem_ctrls.dram.perBankWrBursts::6         4761                       # Per bank write bursts
system.mem_ctrls.dram.perBankWrBursts::7         4547                       # Per bank write bursts
system.mem_ctrls.dram.perBankWrBursts::8         5108                       # Per bank write bursts
system.mem_ctrls.dram.perBankWrBursts::9         5097                       # Per bank write bursts
system.mem_ctrls.dram.perBankWrBursts::10         4940                       # Per bank write bursts
system.mem_ctrls.dram.perBankWrBursts::11         4847                       # Per bank write bursts
system.mem_ctrls.dram.perBankWrBursts::12         4932                       # Per bank write bursts
system.mem_ctrls.dram.perBankWrBursts::13         4695                       # Per bank write bursts
system.mem_ctrls.dram.perBankWrBursts::14         4846                       # Per bank write bursts
system.mem_ctrls.dram.perBankWrBursts::15         4829                       # Per bank write bursts
system.mem_ctrls.dram.totQLat              2220772250                       # Total ticks spent queuing
system.mem_ctrls.dram.totBusLat             943570000                       # Total ticks spent in databus transfers
system.mem_ctrls.dram.totMemAccLat         5759159750                       # Total ticks spent from burst creation until serviced by the DRAM
system.mem_ctrls.dram.avgQLat                11767.93                       # Average queueing delay per DRAM burst
system.mem_ctrls.dram.avgBusLat               5000.00                       # Average bus latency per DRAM burst
system.mem_ctrls.dram.avgMemAccLat           30517.93                       # Average memory access latency per DRAM burst
system.mem_ctrls.dram.readRowHits              120152                       # Number of row buffer hits during reads
system.mem_ctrls.dram.writeRowHits              67702                       # Number of row buffer hits during writes
system.mem_ctrls.dram.readRowHitRate            63.67                       # Row buffer hit rate for reads
system.mem_ctrls.dram.writeRowHitRate           86.71                       # Row buffer hit rate for writes
system.mem_ctrls.dram.bytesPerActivate::samples        78927                       # Bytes accessed per row activation
system.mem_ctrls.dram.bytesPerActivate::mean   216.294652                       # Bytes accessed per row activation
system.mem_ctrls.dram.bytesPerActivate::gmean   124.325317                       # Bytes accessed per row activation
system.mem_ctrls.dram.bytesPerActivate::stdev   274.733245                       # Bytes accessed per row activation
system.mem_ctrls.dram.bytesPerActivate::0-127        48912     61.97%     61.97% # Bytes accessed per row activation
system.mem_ctrls.dram.bytesPerActivate::128-255         6968      8.83%     70.80% # Bytes accessed per row activation
system.mem_ctrls.dram.bytesPerActivate::256-383        10490     13.29%     84.09% # Bytes accessed per row activation
system.mem_ctrls.dram.bytesPerActivate::384-511         1772      2.25%     86.34% # Bytes accessed per row activation
system.mem_ctrls.dram.bytesPerActivate::512-639         1648      2.09%     88.42% # Bytes accessed per row activation
system.mem_ctrls.dram.bytesPerActivate::640-767         2145      2.72%     91.14% # Bytes accessed per row activation
system.mem_ctrls.dram.bytesPerActivate::768-895         1114      1.41%     92.55% # Bytes accessed per row activation
system.mem_ctrls.dram.bytesPerActivate::896-1023         1179      1.49%     94.05% # Bytes accessed per row activation
system.mem_ctrls.dram.bytesPerActivate::1024-1151         4699      5.95%    100.00% # Bytes accessed per row activation
system.mem_ctrls.dram.bytesPerActivate::total        78927                       # Bytes accessed per row activation
system.mem_ctrls.dram.bytesRead              12077696                       # Total number of bytes read from DRAM
system.mem_ctrls.dram.bytesWritten            4996800                       # Total number of bytes written to DRAM
system.mem_ctrls.dram.avgRdBW               87.896684                       # Average DRAM read bandwidth in MiBytes/s
system.mem_ctrls.dram.avgWrBW               36.364730                       # Average DRAM write bandwidth in MiBytes/s
system.mem_ctrls.dram.peakBW                 12800.00                       # Theoretical peak bandwidth in MiByte/s
system.mem_ctrls.dram.busUtil                    0.97                       # Data bus utilization in percentage
system.mem_ctrls.dram.busUtilRead                0.69                       # Data bus utilization in percentage for reads
system.mem_ctrls.dram.busUtilWrite               0.28                       # Data bus utilization in percentage for writes
system.mem_ctrls.dram.pageHitRate               70.41                       # Row buffer hit rate, read and write combined
system.mem_ctrls.dram.power_state.pwrStateResidencyTicks::UNDEFINED 137407868500                       # Cumulative time (in ticks) in various power states
system.mem_ctrls.dram.rank0.actEnergy       284628960                       # Energy for activate commands per rank (pJ)
system.mem_ctrls.dram.rank0.preEnergy       151268700                       # Energy for precharge commands per rank (pJ)
system.mem_ctrls.dram.rank0.readEnergy      674994180                       # Energy for read commands per rank (pJ)
system.mem_ctrls.dram.rank0.writeEnergy     202436820                       # Energy for write commands per rank (pJ)
system.mem_ctrls.dram.rank0.refreshEnergy 10846552080.000002                       # Energy for refresh commands per rank (pJ)
system.mem_ctrls.dram.rank0.actBackEnergy  24314969940                       # Energy for active background per rank (pJ)
system.mem_ctrls.dram.rank0.preBackEnergy  32288857440                       # Energy for precharge background per rank (pJ)
system.mem_ctrls.dram.rank0.actPowerDownEnergy            0                       # Energy for active power-down per rank (pJ)
system.mem_ctrls.dram.rank0.prePowerDownEnergy            0                       # Energy for precharge power-down per rank (pJ)
system.mem_ctrls.dram.rank0.selfRefreshEnergy            0                       # Energy for self refresh per rank (pJ)
system.mem_ctrls.dram.rank0.totalEnergy   68763708120                       # Total energy per rank (pJ)
system.mem_ctrls.dram.rank0.averagePower   500.435011                       # Core power per rank (mW)
system.mem_ctrls.dram.rank0.totalIdleTime            0                       # Total Idle time Per DRAM Rank
system.mem_ctrls.dram.rank0.pwrStateTime::IDLE  83552057500                       # Time in different power states
system.mem_ctrls.dram.rank0.pwrStateTime::REF   4588220000                       # Time in different power states
system.mem_ctrls.dram.rank0.pwrStateTime::SREF            0                       # Time in different power states
system.mem_ctrls.dram.rank0.pwrStateTime::PRE_PDN            0                       # Time in different power states
system.mem_ctrls.dram.rank0.pwrStateTime::ACT  49267591000                       # Time in different power states
system.mem_ctrls.dram.rank0.pwrStateTime::ACT_PDN            0                       # Time in different power states
system.mem_ctrls.dram.rank1.actEnergy       278966940                       # Energy for activate commands per rank (pJ)
system.mem_ctrls.dram.rank1.preEnergy       148259265                       # Energy for precharge commands per rank (pJ)
system.mem_ctrls.dram.rank1.readEnergy      672423780                       # Energy for read commands per rank (pJ)
system.mem_ctrls.dram.rank1.writeEnergy     205114680                       # Energy for write commands per rank (pJ)
system.mem_ctrls.dram.rank1.refreshEnergy 10846552080.000002                       # Energy for refresh commands per rank (pJ)
system.mem_ctrls.dram.rank1.actBackEnergy  24858560700                       # Energy for active background per rank (pJ)
system.mem_ctrls.dram.rank1.preBackEnergy  31831096800                       # Energy for precharge background per rank (pJ)
system.mem_ctrls.dram.rank1.actPowerDownEnergy            0                       # Energy for active power-down per rank (pJ)
system.mem_ctrls.dram.rank1.prePowerDownEnergy            0                       # Energy for precharge power-down per rank (pJ)
system.mem_ctrls.dram.rank1.selfRefreshEnergy            0                       # Energy for self refresh per rank (pJ)
system.mem_ctrls.dram.rank1.totalEnergy   68840974245                       # Total energy per rank (pJ)
system.mem_ctrls.dram.rank1.averagePower   500.997323                       # Core power per rank (mW)
system.mem_ctrls.dram.rank1.totalIdleTime            0                       # Total Idle time Per DRAM Rank
system.mem_ctrls.dram.rank1.pwrStateTime::IDLE  82304232250                       # Time in different power states
system.mem_ctrls.dram.rank1.pwrStateTime::REF   4588220000                       # Time in different power states
system.mem_ctrls.dram.rank1.pwrStateTime::SREF            0                       # Time in different power states
system.mem_ctrls.dram.rank1.pwrStateTime::PRE_PDN            0                       # Time in different power states
system.mem_ctrls.dram.rank1.pwrStateTime::ACT  50515416250                       # Time in different power states
system.mem_ctrls.dram.rank1.pwrStateTime::ACT_PDN            0                       # Time in different power states
system.mem_ctrls.power_state.pwrStateResidencyTicks::UNDEFINED 137407868500                       # Cumulative time (in ticks) in various power states
system.membus.trans_dist::ReadResp              78410                       # Transaction distribution
system.membus.trans_dist::WritebackDirty       146071                       # Transaction distribution
system.membus.trans_dist::CleanEvict            33417                       # Transaction distribution
system.membus.trans_dist::ReadExReq            110592                       # Transaction distribution
system.membus.trans_dist::ReadExResp           110592                       # Transaction distribution
system.membus.trans_dist::ReadSharedReq         78410                       # Transaction distribution
system.membus.pkt_count_system.l2.mem_side_port::system.mem_ctrls.port       557492                       # Packet count per connected requestor and responder (bytes)
system.membus.pkt_count_system.l2.mem_side_port::total       557492                       # Packet count per connected requestor and responder (bytes)
system.membus.pkt_count::total                 557492                       # Packet count per connected requestor and responder (bytes)
system.membus.pkt_size_system.l2.mem_side_port::system.mem_ctrls.port     10722336                       # Cumulative packet size per connected requestor and responder (bytes)
system.membus.pkt_size_system.l2.mem_side_port::total     10722336                       # Cumulative packet size per connected requestor and responder (bytes)
system.membus.pkt_size::total                10722336                       # Cumulative packet size per connected requestor and responder (bytes)
system.membus.snoops                                0                       # Total snoops (count)
system.membus.snoopTraffic                          0                       # Total snoop traffic (bytes)
system.membus.snoop_fanout::samples            189002                       # Request fanout histogram
system.membus.snoop_fanout::mean                    0                       # Request fanout histogram
system.membus.snoop_fanout::stdev                   0                       # Request fanout histogram
system.membus.snoop_fanout::underflows              0      0.00%      0.00% # Request fanout histogram
system.membus.snoop_fanout::0                  189002    100.00%    100.00% # Request fanout histogram
system.membus.snoop_fanout::1                       0      0.00%    100.00% # Request fanout histogram
system.membus.snoop_fanout::overflows               0      0.00%    100.00% # Request fanout histogram
system.membus.snoop_fanout::min_value               0                       # Request fanout histogram
system.membus.snoop_fanout::max_value               0                       # Request fanout histogram
system.membus.snoop_fanout::total              189002                       # Request fanout histogram
system.membus.power_state.pwrStateResidencyTicks::UNDEFINED 137407868500                       # Cumulative time (in ticks) in various power states
system.membus.reqLayer2.occupancy           660672000                       # Layer occupancy (ticks)
system.membus.reqLayer2.utilization               0.5                       # Layer utilization (%)
system.membus.respLayer1.occupancy          641233250                       # Layer occupancy (ticks)
system.membus.respLayer1.utilization              0.5                       # Layer utilization (%)
system.tol2bus.trans_dist::ReadResp             83442                       # Transaction distribution
system.tol2bus.trans_dist::WritebackDirty       299343                       # Transaction distribution
system.tol2bus.trans_dist::WritebackClean          869                       # Transaction distribution
system.tol2bus.trans_dist::CleanEvict          215866                       # Transaction distribution
system.tol2bus.trans_dist::ReadExReq           110894                       # Transaction distribution
system.tol2bus.trans_dist::ReadExResp          110894                       # Transaction distribution
system.tol2bus.trans_dist::ReadCleanReq          3974                       # Transaction distribution
system.tol2bus.trans_dist::ReadSharedReq        79468                       # Transaction distribution
system.tol2bus.pkt_count_system.cpu.icache.mem_side_port::system.l2.cpu_side_port         8817                       # Packet count per connected requestor and responder (bytes)
system.tol2bus.pkt_count_system.cpu.dcache.mem_side_port::system.l2.cpu_side_port       566990                       # Packet count per connected requestor and responder (bytes)
system.tol2bus.pkt_count::total                575807                       # Packet count per connected requestor and responder (bytes)
system.tol2bus.pkt_size_system.cpu.icache.mem_side_port::system.l2.cpu_side_port       154976                       # Cumulative packet size per connected requestor and responder (bytes)
system.tol2bus.pkt_size_system.cpu.dcache.mem_side_port::system.l2.cpu_side_port     10996288                       # Cumulative packet size per connected requestor and responder (bytes)
system.tol2bus.pkt_size::total               11151264                       # Cumulative packet size per connected requestor and responder (bytes)
system.tol2bus.snoops                          328943                       # Total snoops (count)
system.tol2bus.snoopTraffic                   4674272                       # Total snoop traffic (bytes)
system.tol2bus.snoop_fanout::samples           523279                       # Request fanout histogram
system.tol2bus.snoop_fanout::mean            0.337403                       # Request fanout histogram
system.tol2bus.snoop_fanout::stdev           0.472824                       # Request fanout histogram
system.tol2bus.snoop_fanout::underflows             0      0.00%      0.00% # Request fanout histogram
system.tol2bus.snoop_fanout::0                 346723     66.26%     66.26% # Request fanout histogram
system.tol2bus.snoop_fanout::1                 176556     33.74%    100.00% # Request fanout histogram
system.tol2bus.snoop_fanout::2                      0      0.00%    100.00% # Request fanout histogram
system.tol2bus.snoop_fanout::3                      0      0.00%    100.00% # Request fanout histogram
system.tol2bus.snoop_fanout::4                      0      0.00%    100.00% # Request fanout histogram
system.tol2bus.snoop_fanout::overflows              0      0.00%    100.00% # Request fanout histogram
system.tol2bus.snoop_fanout::min_value              0                       # Request fanout histogram
system.tol2bus.snoop_fanout::max_value              1                       # Request fanout histogram
system.tol2bus.snoop_fanout::total             523279                       # Request fanout histogram
system.tol2bus.power_state.pwrStateResidencyTicks::UNDEFINED 137407868500                       # Cumulative time (in ticks) in various power states
system.tol2bus.reqLayer0.occupancy          267806000                       # Layer occupancy (ticks)
system.tol2bus.reqLayer0.utilization              0.2                       # Layer utilization (%)
system.tol2bus.respLayer0.occupancy           3974000                       # Layer occupancy (ticks)
system.tol2bus.respLayer0.utilization             0.0                       # Layer utilization (%)
system.tol2bus.respLayer1.occupancy         190362000                       # Layer occupancy (ticks)
system.tol2bus.respLayer1.utilization             0.1                       # Layer utilization (%)
system.voltage_domain.voltage                       1                       # Voltage in Volts

---------- End Simulation Statistics   ----------
