
---------- Begin Simulation Statistics ----------
final_tick                               137329710500                       # Number of ticks from beginning of simulation (restored from checkpoints and never reset)
host_inst_rate                                 505075                       # Simulator instruction rate (inst/s)
host_mem_usage                                 712688                       # Number of bytes of host memory used
host_op_rate                                   772634                       # Simulator op (including micro ops) rate (op/s)
host_seconds                                   125.60                       # Real time elapsed on the host
host_tick_rate                             1093396725                       # Simulator tick rate (ticks/s)
sim_freq                                 1000000000000                       # Frequency of simulated ticks
sim_insts                                    63436879                       # Number of instructions simulated
sim_ops                                      97042207                       # Number of ops (including micro ops) simulated
sim_seconds                                  0.137330                       # Number of seconds simulated
sim_ticks                                137329710500                       # Number of ticks simulated
system.cpu.Branches                           7714392                       # Number of branches fetched
system.cpu.committedInsts                    63436879                       # Number of instructions committed
system.cpu.committedOps                      97042207                       # Number of ops (including micro ops) committed
system.cpu.idle_fraction                     0.000000                       # Percentage of idle cycles
system.cpu.not_idle_fraction                 1.000000                       # Percentage of non-idle cycles
system.cpu.numCycles                        274659421                       # number of cpu cycles simulated
system.cpu.numWorkItemsCompleted                    0                       # number of work items this cpu completed
system.cpu.numWorkItemsStarted                      0                       # number of work items this cpu started
system.cpu.num_busy_cycles               274659420.998000                       # Number of busy cycles
system.cpu.num_cc_register_reads             29902181                       # number of times the CC registers were read
system.cpu.num_cc_register_writes            27168375                       # number of times the CC registers were written
system.cpu.num_conditional_control_insts      4234782                       # number of instructions that are conditional controls
system.cpu.num_fp_alu_accesses                  85206                       # Number of float alu accesses
system.cpu.num_fp_insts                         85206                       # number of float instructions
system.cpu.num_fp_register_reads               119500                       # number of times the floating registers were read
system.cpu.num_fp_register_writes               63458                       # number of times the floating registers were written
system.cpu.num_func_calls                     1924148                       # number of times a function call or return occured
system.cpu.num_idle_cycles                   0.002000                       # Number of idle cycles
system.cpu.num_int_alu_accesses              95088664                       # Number of integer alu accesses
system.cpu.num_int_insts                     95088664                       # number of integer instructions
system.cpu.num_int_register_reads           214307213                       # number of times the integer registers were read
system.cpu.num_int_register_writes           77409624                       # number of times the integer registers were written
system.cpu.num_load_insts                    26073751                       # Number of load instructions
system.cpu.num_mem_refs                      36099174                       # number of memory refs
system.cpu.num_store_insts                   10025423                       # Number of store instructions
system.cpu.num_vec_alu_accesses                     0                       # Number of vector alu accesses
system.cpu.num_vec_insts                            0                       # number of vector instructions
system.cpu.num_vec_register_reads                   0                       # number of times the vector registers were read
system.cpu.num_vec_register_writes                  0                       # number of times the vector registers were written
system.cpu.op_class::No_OpClass                976243      1.01%      1.01% # Class of executed instruction
system.cpu.op_class::IntAlu                  59879188     61.70%     62.71% # Class of executed instruction
system.cpu.op_class::IntMult                       74      0.00%     62.71% # Class of executed instruction
system.cpu.op_class::IntDiv                     36240      0.04%     62.75% # Class of executed instruction
system.cpu.op_class::FloatAdd                    5590      0.01%     62.75% # Class of executed instruction
system.cpu.op_class::FloatCmp                       0      0.00%     62.75% # Class of executed instruction
system.cpu.op_class::FloatCvt                    1232      0.00%     62.75% # Class of executed instruction
system.cpu.op_class::FloatMult                      0      0.00%     62.75% # Class of executed instruction
system.cpu.op_class::FloatMultAcc                   0      0.00%     62.75% # Class of executed instruction
system.cpu.op_class::FloatDiv                       0      0.00%     62.75% # Class of executed instruction
system.cpu.op_class::FloatMisc                      0      0.00%     62.75% # Class of executed instruction
system.cpu.op_class::FloatSqrt                      0      0.00%     62.75% # Class of executed instruction
system.cpu.op_class::SimdAdd                     6716      0.01%     62.76% # Class of executed instruction
system.cpu.op_class::SimdAddAcc                     0      0.00%     62.76% # Class of executed instruction
system.cpu.op_class::SimdAlu                    12162      0.01%     62.77% # Class of executed instruction
system.cpu.op_class::SimdCmp                        6      0.00%     62.77% # Class of executed instruction
system.cpu.op_class::SimdCvt                    13804      0.01%     62.79% # Class of executed instruction
system.cpu.op_class::SimdMisc                   12230      0.01%     62.80% # Class of executed instruction
system.cpu.op_class::SimdMult                       0      0.00%     62.80% # Class of executed instruction
system.cpu.op_class::SimdMultAcc                    0      0.00%     62.80% # Class of executed instruction
system.cpu.op_class::SimdShift                    436      0.00%     62.80% # Class of executed instruction
system.cpu.op_class::SimdShiftAcc                   0      0.00%     62.80% # Class of executed instruction
system.cpu.op_class::SimdDiv                        0      0.00%     62.80% # Class of executed instruction
system.cpu.op_class::SimdSqrt                       0      0.00%     62.80% # Class of executed instruction
system.cpu.op_class::SimdFloatAdd                  10      0.00%     62.80% # Class of executed instruction
system.cpu.op_class::SimdFloatAlu                   0      0.00%     62.80% # Class of executed instruction
system.cpu.op_class::SimdFloatCmp                   0      0.00%     62.80% # Class of executed instruction
system.cpu.op_class::SimdFloatCvt                  30      0.00%     62.80% # Class of executed instruction
system.cpu.op_class::SimdFloatDiv                   0      0.00%     62.80% # Class of executed instruction
system.cpu.op_class::SimdFloatMisc                  0      0.00%     62.80% # Class of executed instruction
system.cpu.op_class::SimdFloatMult                 12      0.00%     62.80% # Class of executed instruction
system.cpu.op_class::SimdFloatMultAcc               0      0.00%     62.80% # Class of executed instruction
system.cpu.op_class::SimdFloatSqrt                  0      0.00%     62.80% # Class of executed instruction
system.cpu.op_class::SimdReduceAdd                  0      0.00%     62.80% # Class of executed instruction
system.cpu.op_class::SimdReduceAlu                  0      0.00%     62.80% # Class of executed instruction
system.cpu.op_class::SimdReduceCmp                  0      0.00%     62.80% # Class of executed instruction
system.cpu.op_class::SimdFloatReduceAdd             0      0.00%     62.80% # Class of executed instruction
system.cpu.op_class::SimdFloatReduceCmp             0      0.00%     62.80% # Class of executed instruction
system.cpu.op_class::SimdAes                        0      0.00%     62.80% # Class of executed instruction
system.cpu.op_class::SimdAesMix                     0      0.00%     62.80% # Class of executed instruction
system.cpu.op_class::SimdSha1Hash                   0      0.00%     62.80% # Class of executed instruction
system.cpu.op_class::SimdSha1Hash2                  0      0.00%     62.80% # Class of executed instruction
system.cpu.op_class::SimdSha256Hash                 0      0.00%     62.80% # Class of executed instruction
system.cpu.op_class::SimdSha256Hash2                0      0.00%     62.80% # Class of executed instruction
system.cpu.op_class::SimdShaSigma2                  0      0.00%     62.80% # Class of executed instruction
system.cpu.op_class::SimdShaSigma3                  0      0.00%     62.80% # Class of executed instruction
system.cpu.op_class::SimdPredAlu                    0      0.00%     62.80% # Class of executed instruction
system.cpu.op_class::MemRead                 26056914     26.85%     89.65% # Class of executed instruction
system.cpu.op_class::MemWrite                10011985     10.32%     99.97% # Class of executed instruction
system.cpu.op_class::FloatMemRead               16837      0.02%     99.99% # Class of executed instruction
system.cpu.op_class::FloatMemWrite              13438      0.01%    100.00% # Class of executed instruction
system.cpu.op_class::IprAccess                      0      0.00%    100.00% # Class of executed instruction
system.cpu.op_class::InstPrefetch                   0      0.00%    100.00% # Class of executed instruction
system.cpu.op_class::total                   97043147                       # Class of executed instruction
system.cpu.workload.numSyscalls                   100                       # Number of system calls
system.membus.snoop_filter.hit_multi_requests            0                       # Number of requests hitting in the snoop filter with multiple (>1) holders of the requested data.
system.membus.snoop_filter.hit_multi_snoops            0                       # Number of snoops hitting in the snoop filter with multiple (>1) holders of the requested data.
system.membus.snoop_filter.hit_single_requests       179355                       # Number of requests hitting in the snoop filter with a single holder of the requested data.
system.membus.snoop_filter.hit_single_snoops            0                       # Number of snoops hitting in the snoop filter with a single holder of the requested data.
system.membus.snoop_filter.tot_requests        368172                       # Total number of requests made to the snoop filter.
system.membus.snoop_filter.tot_snoops               0                       # Total number of snoops made to the snoop filter.
system.tol2bus.snoop_filter.hit_multi_requests            0                       # Number of requests hitting in the snoop filter with multiple (>1) holders of the requested data.
system.tol2bus.snoop_filter.hit_multi_snoops            0                       # Number of snoops hitting in the snoop filter with multiple (>1) holders of the requested data.
system.tol2bus.snoop_filter.hit_single_requests       188270                       # Number of requests hitting in the snoop filter with a single holder of the requested data.
system.tol2bus.snoop_filter.hit_single_snoops       182739                       # Number of snoops hitting in the snoop filter with a single holder of the requested data.
system.tol2bus.snoop_filter.tot_requests       383740                       # Total number of requests made to the snoop filter.
system.tol2bus.snoop_filter.tot_snoops         182739                       # Total number of snoops made to the snoop filter.
system.clk_domain.clock                          1000                       # Clock period in ticks
system.cpu.dcache.demand_hits::.cpu.data     35939977                       # number of demand (read+write) hits
system.cpu.dcache.demand_hits::total         35939977                       # number of demand (read+write) hits
system.cpu.dcache.overall_hits::.cpu.data     35939977                       # number of overall hits
system.cpu.dcache.overall_hits::total        35939977                       # number of overall hits
system.cpu.dcache.demand_misses::.cpu.data       191498                       # number of demand (read+write) misses
system.cpu.dcache.demand_misses::total         191498                       # number of demand (read+write) misses
system.cpu.dcache.overall_misses::.cpu.data       191498                       # number of overall misses
system.cpu.dcache.overall_misses::total        191498                       # number of overall misses
system.cpu.dcache.demand_miss_latency::.cpu.data  15527964500                       # number of demand (read+write) miss cycles
system.cpu.dcache.demand_miss_latency::total  15527964500                       # number of demand (read+write) miss cycles
system.cpu.dcache.overall_miss_latency::.cpu.data  15527964500                       # number of overall miss cycles
system.cpu.dcache.overall_miss_latency::total  15527964500                       # number of overall miss cycles
system.cpu.dcache.demand_accesses::.cpu.data     36131475                       # number of demand (read+write) accesses
system.cpu.dcache.demand_accesses::total     36131475                       # number of demand (read+write) accesses
system.cpu.dcache.overall_accesses::.cpu.data     36131475                       # number of overall (read+write) accesses
system.cpu.dcache.overall_accesses::total     36131475                       # number of overall (read+write) accesses
system.cpu.dcache.demand_miss_rate::.cpu.data     0.005300                       # miss rate for demand accesses
system.cpu.dcache.demand_miss_rate::total     0.005300                       # miss rate for demand accesses
system.cpu.dcache.overall_miss_rate::.cpu.data     0.005300                       # miss rate for overall accesses
system.cpu.dcache.overall_miss_rate::total     0.005300                       # miss rate for overall accesses
system.cpu.dcache.demand_avg_miss_latency::.cpu.data 81086.823361                       # average overall miss latency
system.cpu.dcache.demand_avg_miss_latency::total 81086.823361                       # average overall miss latency
system.cpu.dcache.overall_avg_miss_latency::.cpu.data 81086.823361                       # average overall miss latency
system.cpu.dcache.overall_avg_miss_latency::total 81086.823361                       # average overall miss latency
system.cpu.dcache.blocked_cycles::no_mshrs            0                       # number of cycles access was blocked
system.cpu.dcache.blocked_cycles::no_targets            0                       # number of cycles access was blocked
system.cpu.dcache.blocked::no_mshrs                 0                       # number of cycles access was blocked
system.cpu.dcache.blocked::no_targets               0                       # number of cycles access was blocked
system.cpu.dcache.avg_blocked_cycles::no_mshrs          nan                       # average number of cycles each access was blocked
system.cpu.dcache.avg_blocked_cycles::no_targets          nan                       # average number of cycles each access was blocked
system.cpu.dcache.writebacks::.writebacks       153853                       # number of writebacks
system.cpu.dcache.writebacks::total            153853                       # number of writebacks
system.cpu.dcache.demand_mshr_misses::.cpu.data       191498                       # number of demand (read+write) MSHR misses
system.cpu.dcache.demand_mshr_misses::total       191498                       # number of demand (read+write) MSHR misses
system.cpu.dcache.overall_mshr_misses::.cpu.data       191498                       # number of overall MSHR misses
system.cpu.dcache.overall_mshr_misses::total       191498                       # number of overall MSHR misses
system.cpu.dcache.demand_mshr_miss_latency::.cpu.data  15336466500                       # number of demand (read+write) MSHR miss cycles
system.cpu.dcache.demand_mshr_miss_latency::total  15336466500                       # number of demand (read+write) MSHR miss cycles
system.cpu.dcache.overall_mshr_miss_latency::.cpu.data  15336466500                       # number of overall MSHR miss cycles
system.cpu.dcache.overall_mshr_miss_latency::total  15336466500                       # number of overall MSHR miss cycles
system.cpu.dcache.demand_mshr_miss_rate::.cpu.data     0.005300                       # mshr miss rate for demand accesses
system.cpu.dcache.demand_mshr_miss_rate::total     0.005300                       # mshr miss rate for demand accesses
system.cpu.dcache.overall_mshr_miss_rate::.cpu.data     0.005300                       # mshr miss rate for overall accesses
system.cpu.dcache.overall_mshr_miss_rate::total     0.005300                       # mshr miss rate for overall accesses
system.cpu.dcache.demand_avg_mshr_miss_latency::.cpu.data 80086.823361                       # average overall mshr miss latency
system.cpu.dcache.demand_avg_mshr_miss_latency::total 80086.823361                       # average overall mshr miss latency
system.cpu.dcache.overall_avg_mshr_miss_latency::.cpu.data 80086.823361                       # average overall mshr miss latency
system.cpu.dcache.overall_avg_mshr_miss_latency::total 80086.823361                       # average overall mshr miss latency
system.cpu.dcache.replacements                 187402                       # number of replacements
system.cpu.dcache.ReadReq_hits::.cpu.data     25993265                       # number of ReadReq hits
system.cpu.dcache.ReadReq_hits::total        25993265                       # number of ReadReq hits
system.cpu.dcache.ReadReq_misses::.cpu.data        80606                       # number of ReadReq misses
system.cpu.dcache.ReadReq_misses::total         80606                       # number of ReadReq misses
system.cpu.dcache.ReadReq_miss_latency::.cpu.data   6868356500                       # number of ReadReq miss cycles
system.cpu.dcache.ReadReq_miss_latency::total   6868356500                       # number of ReadReq miss cycles
system.cpu.dcache.ReadReq_accesses::.cpu.data     26073871                       # number of ReadReq accesses(hits+misses)
system.cpu.dcache.ReadReq_accesses::total     26073871                       # number of ReadReq accesses(hits+misses)
system.cpu.dcache.ReadReq_miss_rate::.cpu.data     0.003091                       # miss rate for ReadReq accesses
system.cpu.dcache.ReadReq_miss_rate::total     0.003091                       # miss rate for ReadReq accesses
system.cpu.dcache.ReadReq_avg_miss_latency::.cpu.data 85208.998089                       # average ReadReq miss latency
system.cpu.dcache.ReadReq_avg_miss_latency::total 85208.998089                       # average ReadReq miss latency
system.cpu.dcache.ReadReq_mshr_misses::.cpu.data        80606                       # number of ReadReq MSHR misses
system.cpu.dcache.ReadReq_mshr_misses::total        80606                       # number of ReadReq MSHR misses
system.cpu.dcache.ReadReq_mshr_miss_latency::.cpu.data   6787750500                       # number of ReadReq MSHR miss cycles
system.cpu.dcache.ReadReq_mshr_miss_latency::total   6787750500                       # number of ReadReq MSHR miss cycles
system.cpu.dcache.ReadReq_mshr_miss_rate::.cpu.data     0.003091                       # mshr miss rate for ReadReq accesses
system.cpu.dcache.ReadReq_mshr_miss_rate::total     0.003091                       # mshr miss rate for ReadReq accesses
system.cpu.dcache.ReadReq_avg_mshr_miss_latency::.cpu.data 84208.998089                       # average ReadReq mshr miss latency
system.cpu.dcache.ReadReq_avg_mshr_miss_latency::total 84208.998089                       # average ReadReq mshr miss latency
system.cpu.dcache.WriteReq_hits::.cpu.data      9946712                       # number of WriteReq hits
system.cpu.dcache.WriteReq_hits::total        9946712                       # number of WriteReq hits
system.cpu.dcache.WriteReq_misses::.cpu.data       110892                       # number of WriteReq misses
system.cpu.dcache.WriteReq_misses::total       110892                       # number of WriteReq misses
system.cpu.dcache.WriteReq_miss_latency::.cpu.data   8659608000                       # number of WriteReq miss cycles
system.cpu.dcache.WriteReq_miss_latency::total   8659608000                       # number of WriteReq miss cycles
system.cpu.dcache.WriteReq_accesses::.cpu.data     10057604                       # number of WriteReq accesses(hits+misses)
system.cpu.dcache.WriteReq_accesses::total     10057604                       # number of WriteReq accesses(hits+misses)
system.cpu.dcache.WriteReq_miss_rate::.cpu.data     0.011026                       # miss rate for WriteReq accesses
system.cpu.dcache.WriteReq_miss_rate::total     0.011026                       # miss rate for WriteReq accesses
system.cpu.dcache.WriteReq_avg_miss_latency::.cpu.data 78090.466400                       # average WriteReq miss latency
system.cpu.dcache.WriteReq_avg_miss_latency::total 78090.466400                       # average WriteReq miss latency
system.cpu.dcache.WriteReq_mshr_misses::.cpu.data       110892                       # number of WriteReq MSHR misses
system.cpu.dcache.WriteReq_mshr_misses::total       110892                       # number of WriteReq MSHR misses
system.cpu.dcache.WriteReq_mshr_miss_latency::.cpu.data   8548716000                       # number of WriteReq MSHR miss cycles
system.cpu.dcache.WriteReq_mshr_miss_latency::total   8548716000                       # number of WriteReq MSHR miss cycles
system.cpu.dcache.WriteReq_mshr_miss_rate::.cpu.data     0.011026                       # mshr miss rate for WriteReq accesses
system.cpu.dcache.WriteReq_mshr_miss_rate::total     0.011026                       # mshr miss rate for WriteReq accesses
system.cpu.dcache.WriteReq_avg_mshr_miss_latency::.cpu.data 77090.466400                       # average WriteReq mshr miss latency
system.cpu.dcache.WriteReq_avg_mshr_miss_latency::total 77090.466400                       # average WriteReq mshr miss latency
system.cpu.dcache.power_state.pwrStateResidencyTicks::UNDEFINED 137329710500                       # Cumulative time (in ticks) in various power states
system.cpu.dcache.tags.tagsinuse          4084.016942                       # Cycle average of tags in use
system.cpu.dcache.tags.total_refs            36131475                       # Total number of references to valid blocks.
system.cpu.dcache.tags.sampled_refs            191498                       # Sample count of references to valid blocks.
system.cpu.dcache.tags.avg_refs            188.678080                       # Average number of references to valid blocks.
system.cpu.dcache.tags.warmup_cycle            174500                       # Cycle when the warmup percentage was hit.
system.cpu.dcache.tags.occ_blocks::.cpu.data  4084.016942                       # Average occupied blocks per requestor
system.cpu.dcache.tags.occ_percent::.cpu.data     0.997074                       # Average percentage of cache occupancy
system.cpu.dcache.tags.occ_percent::total     0.997074                       # Average percentage of cache occupancy
system.cpu.dcache.tags.occ_task_id_blocks::1024         4096                       # Occupied blocks per task id
system.cpu.dcache.tags.age_task_id_blocks_1024::0           35                       # Occupied blocks per task id
system.cpu.dcache.tags.age_task_id_blocks_1024::1          410                       # Occupied blocks per task id
system.cpu.dcache.tags.age_task_id_blocks_1024::2         3648                       # Occupied blocks per task id
system.cpu.dcache.tags.age_task_id_blocks_1024::3            3                       # Occupied blocks per task id
system.cpu.dcache.tags.occ_task_id_percent::1024            1                       # Percentage of cache occupancy per task id
system.cpu.dcache.tags.tag_accesses         144717398                       # Number of tag accesses
system.cpu.dcache.tags.data_accesses        144717398                       # Number of data accesses
system.cpu.dcache.tags.power_state.pwrStateResidencyTicks::UNDEFINED 137329710500                       # Cumulative time (in ticks) in various power states
system.cpu.dtb.rdAccesses                    26074093                       # TLB accesses on read requests
system.cpu.dtb.wrAccesses                    10058352                       # TLB accesses on write requests
system.cpu.dtb.rdMisses                          1987                       # TLB misses on read requests
system.cpu.dtb.wrMisses                          1560                       # TLB misses on write requests
system.cpu.dtb.walker.power_state.pwrStateResidencyTicks::UNDEFINED 137329710500                       # Cumulative time (in ticks) in various power states
system.cpu.dtb_walker_cache.blocked_cycles::no_mshrs            0                       # number of cycles access was blocked
system.cpu.dtb_walker_cache.blocked_cycles::no_targets            0                       # number of cycles access was blocked
system.cpu.dtb_walker_cache.blocked::no_mshrs            0                       # number of cycles access was blocked
system.cpu.dtb_walker_cache.blocked::no_targets            0                       # number of cycles access was blocked
system.cpu.dtb_walker_cache.avg_blocked_cycles::no_mshrs          nan                       # average number of cycles each access was blocked
system.cpu.dtb_walker_cache.avg_blocked_cycles::no_targets          nan                       # average number of cycles each access was blocked
system.cpu.dtb_walker_cache.replacements            0                       # number of replacements
system.cpu.dtb_walker_cache.power_state.pwrStateResidencyTicks::UNDEFINED 137329710500                       # Cumulative time (in ticks) in various power states
system.cpu.dtb_walker_cache.tags.tagsinuse            0                       # Cycle average of tags in use
system.cpu.dtb_walker_cache.tags.total_refs            0                       # Total number of references to valid blocks.
system.cpu.dtb_walker_cache.tags.sampled_refs            0                       # Sample count of references to valid blocks.
system.cpu.dtb_walker_cache.tags.avg_refs          nan                       # Average number of references to valid blocks.
system.cpu.dtb_walker_cache.tags.warmup_cycle            0                       # Cycle when the warmup percentage was hit.
system.cpu.dtb_walker_cache.tags.tag_accesses            0                       # Number of tag accesses
system.cpu.dtb_walker_cache.tags.data_accesses            0                       # Number of data accesses
system.cpu.dtb_walker_cache.tags.power_state.pwrStateResidencyTicks::UNDEFINED 137329710500                       # Cumulative time (in ticks) in various power states
system.cpu.icache.demand_hits::.cpu.inst     85584524                       # number of demand (read+write) hits
system.cpu.icache.demand_hits::total         85584524                       # number of demand (read+write) hits
system.cpu.icache.overall_hits::.cpu.inst     85584524                       # number of overall hits
system.cpu.icache.overall_hits::total        85584524                       # number of overall hits
system.cpu.icache.demand_misses::.cpu.inst         3972                       # number of demand (read+write) misses
system.cpu.icache.demand_misses::total           3972                       # number of demand (read+write) misses
system.cpu.icache.overall_misses::.cpu.inst         3972                       # number of overall misses
system.cpu.icache.overall_misses::total          3972                       # number of overall misses
system.cpu.icache.demand_miss_latency::.cpu.inst    312107000                       # number of demand (read+write) miss cycles
system.cpu.icache.demand_miss_latency::total    312107000                       # number of demand (read+write) miss cycles
system.cpu.icache.overall_miss_latency::.cpu.inst    312107000                       # number of overall miss cycles
system.cpu.icache.overall_miss_latency::total    312107000                       # number of overall miss cycles
system.cpu.icache.demand_accesses::.cpu.inst     85588496                       # number of demand (read+write) accesses
system.cpu.icache.demand_accesses::total     85588496                       # number of demand (read+write) accesses
system.cpu.icache.overall_accesses::.cpu.inst     85588496                       # number of overall (read+write) accesses
system.cpu.icache.overall_accesses::total     85588496                       # number of overall (read+write) accesses
system.cpu.icache.demand_miss_rate::.cpu.inst     0.000046                       # miss rate for demand accesses
system.cpu.icache.demand_miss_rate::total     0.000046                       # miss rate for demand accesses
system.cpu.icache.overall_miss_rate::.cpu.inst     0.000046                       # miss rate for overall accesses
system.cpu.icache.overall_miss_rate::total     0.000046                       # miss rate for overall accesses
system.cpu.icache.demand_avg_miss_latency::.cpu.inst 78576.787513                       # average overall miss latency
system.cpu.icache.demand_avg_miss_latency::total 78576.787513                       # average overall miss latency
system.cpu.icache.overall_avg_miss_latency::.cpu.inst 78576.787513                       # average overall miss latency
system.cpu.icache.overall_avg_miss_latency::total 78576.787513                       # average overall miss latency
system.cpu.icache.blocked_cycles::no_mshrs            0                       # number of cycles access was blocked
system.cpu.icache.blocked_cycles::no_targets            0                       # number of cycles access was blocked
system.cpu.icache.blocked::no_mshrs                 0                       # number of cycles access was blocked
system.cpu.icache.blocked::no_targets               0                       # number of cycles access was blocked
system.cpu.icache.avg_blocked_cycles::no_mshrs          nan                       # average number of cycles each access was blocked
system.cpu.icache.avg_blocked_cycles::no_targets          nan                       # average number of cycles each access was blocked
system.cpu.icache.writebacks::.writebacks          868                       # number of writebacks
system.cpu.icache.writebacks::total               868                       # number of writebacks
system.cpu.icache.demand_mshr_misses::.cpu.inst         3972                       # number of demand (read+write) MSHR misses
system.cpu.icache.demand_mshr_misses::total         3972                       # number of demand (read+write) MSHR misses
system.cpu.icache.overall_mshr_misses::.cpu.inst         3972                       # number of overall MSHR misses
system.cpu.icache.overall_mshr_misses::total         3972                       # number of overall MSHR misses
system.cpu.icache.demand_mshr_miss_latency::.cpu.inst    308135000                       # number of demand (read+write) MSHR miss cycles
system.cpu.icache.demand_mshr_miss_latency::total    308135000                       # number of demand (read+write) MSHR miss cycles
system.cpu.icache.overall_mshr_miss_latency::.cpu.inst    308135000                       # number of overall MSHR miss cycles
system.cpu.icache.overall_mshr_miss_latency::total    308135000                       # number of overall MSHR miss cycles
system.cpu.icache.demand_mshr_miss_rate::.cpu.inst     0.000046                       # mshr miss rate for demand accesses
system.cpu.icache.demand_mshr_miss_rate::total     0.000046                       # mshr miss rate for demand accesses
system.cpu.icache.overall_mshr_miss_rate::.cpu.inst     0.000046                       # mshr miss rate for overall accesses
system.cpu.icache.overall_mshr_miss_rate::total     0.000046                       # mshr miss rate for overall accesses
system.cpu.icache.demand_avg_mshr_miss_latency::.cpu.inst 77576.787513                       # average overall mshr miss latency
system.cpu.icache.demand_avg_mshr_miss_latency::total 77576.787513                       # average overall mshr miss latency
system.cpu.icache.overall_avg_mshr_miss_latency::.cpu.inst 77576.787513                       # average overall mshr miss latency
system.cpu.icache.overall_avg_mshr_miss_latency::total 77576.787513                       # average overall mshr miss latency
system.cpu.icache.replacements                    868                       # number of replacements
system.cpu.icache.ReadReq_hits::.cpu.inst     85584524                       # number of ReadReq hits
system.cpu.icache.ReadReq_hits::total        85584524                       # number of ReadReq hits
system.cpu.icache.ReadReq_misses::.cpu.inst         3972                       # number of ReadReq misses
system.cpu.icache.ReadReq_misses::total          3972                       # number of ReadReq misses
system.cpu.icache.ReadReq_miss_latency::.cpu.inst    312107000                       # number of ReadReq miss cycles
system.cpu.icache.ReadReq_miss_latency::total    312107000                       # number of ReadReq miss cycles
system.cpu.icache.ReadReq_accesses::.cpu.inst     85588496                       # number of ReadReq accesses(hits+misses)
system.cpu.icache.ReadReq_accesses::total     85588496                       # number of ReadReq accesses(hits+misses)
system.cpu.icache.ReadReq_miss_rate::.cpu.inst     0.000046                       # miss rate for ReadReq accesses
system.cpu.icache.ReadReq_miss_rate::total     0.000046                       # miss rate for ReadReq accesses
system.cpu.icache.ReadReq_avg_miss_latency::.cpu.inst 78576.787513                       # average ReadReq miss latency
system.cpu.icache.ReadReq_avg_miss_latency::total 78576.787513                       # average ReadReq miss latency
system.cpu.icache.ReadReq_mshr_misses::.cpu.inst         3972                       # number of ReadReq MSHR misses
system.cpu.icache.ReadReq_mshr_misses::total         3972                       # number of ReadReq MSHR misses
system.cpu.icache.ReadReq_mshr_miss_latency::.cpu.inst    308135000                       # number of ReadReq MSHR miss cycles
system.cpu.icache.ReadReq_mshr_miss_latency::total    308135000                       # number of ReadReq MSHR miss cycles
system.cpu.icache.ReadReq_mshr_miss_rate::.cpu.inst     0.000046                       # mshr miss rate for ReadReq accesses
system.cpu.icache.ReadReq_mshr_miss_rate::total     0.000046                       # mshr miss rate for ReadReq accesses
system.cpu.icache.ReadReq_avg_mshr_miss_latency::.cpu.inst 77576.787513                       # average ReadReq mshr miss latency
system.cpu.icache.ReadReq_avg_mshr_miss_latency::total 77576.787513                       # average ReadReq mshr miss latency
system.cpu.icache.power_state.pwrStateResidencyTicks::UNDEFINED 137329710500                       # Cumulative time (in ticks) in various power states
system.cpu.icache.tags.tagsinuse          2681.312981                       # Cycle average of tags in use
system.cpu.icache.tags.total_refs            85588496                       # Total number of references to valid blocks.
system.cpu.icache.tags.sampled_refs              3972                       # Sample count of references to valid blocks.
system.cpu.icache.tags.avg_refs          21547.959718                       # Average number of references to valid blocks.
system.cpu.icache.tags.warmup_cycle             87500                       # Cycle when the warmup percentage was hit.
system.cpu.icache.tags.occ_blocks::.cpu.inst  2681.312981                       # Average occupied blocks per requestor
system.cpu.icache.tags.occ_percent::.cpu.inst     0.654617                       # Average percentage of cache occupancy
system.cpu.icache.tags.occ_percent::total     0.654617                       # Average percentage of cache occupancy
system.cpu.icache.tags.occ_task_id_blocks::1024         3104                       # Occupied blocks per task id
system.cpu.icache.tags.age_task_id_blocks_1024::0           59                       # Occupied blocks per task id
system.cpu.icache.tags.age_task_id_blocks_1024::1          355                       # Occupied blocks per task id
system.cpu.icache.tags.age_task_id_blocks_1024::2           32                       # Occupied blocks per task id
system.cpu.icache.tags.age_task_id_blocks_1024::3          212                       # Occupied blocks per task id
system.cpu.icache.tags.age_task_id_blocks_1024::4         2446                       # Occupied blocks per task id
system.cpu.icache.tags.occ_task_id_percent::1024     0.757812                       # Percentage of cache occupancy per task id
system.cpu.icache.tags.tag_accesses         171180964                       # Number of tag accesses
system.cpu.icache.tags.data_accesses        171180964                       # Number of data accesses
system.cpu.icache.tags.power_state.pwrStateResidencyTicks::UNDEFINED 137329710500                       # Cumulative time (in ticks) in various power states
system.cpu.interrupts.clk_domain.clock           8000                       # Clock period in ticks
system.cpu.itb.rdAccesses                           0                       # TLB accesses on read requests
system.cpu.itb.wrAccesses                    85588625                       # TLB accesses on write requests
system.cpu.itb.rdMisses                             0                       # TLB misses on read requests
system.cpu.itb.wrMisses                           542                       # TLB misses on write requests
system.cpu.itb.walker.power_state.pwrStateResidencyTicks::UNDEFINED 137329710500                       # Cumulative time (in ticks) in various power states
system.cpu.itb_walker_cache.blocked_cycles::no_mshrs            0                       # number of cycles access was blocked
system.cpu.itb_walker_cache.blocked_cycles::no_targets            0                       # number of cycles access was blocked
system.cpu.itb_walker_cache.blocked::no_mshrs            0                       # number of cycles access was blocked
system.cpu.itb_walker_cache.blocked::no_targets            0                       # number of cycles access was blocked
system.cpu.itb_walker_cache.avg_blocked_cycles::no_mshrs          nan                       # average number of cycles each access was blocked
system.cpu.itb_walker_cache.avg_blocked_cycles::no_targets          nan                       # average number of cycles each access was blocked
system.cpu.itb_walker_cache.replacements            0                       # number of replacements
system.cpu.itb_walker_cache.power_state.pwrStateResidencyTicks::UNDEFINED 137329710500                       # Cumulative time (in ticks) in various power states
system.cpu.itb_walker_cache.tags.tagsinuse            0                       # Cycle average of tags in use
system.cpu.itb_walker_cache.tags.total_refs            0                       # Total number of references to valid blocks.
system.cpu.itb_walker_cache.tags.sampled_refs            0                       # Sample count of references to valid blocks.
system.cpu.itb_walker_cache.tags.avg_refs          nan                       # Average number of references to valid blocks.
system.cpu.itb_walker_cache.tags.warmup_cycle            0                       # Cycle when the warmup percentage was hit.
system.cpu.itb_walker_cache.tags.tag_accesses            0                       # Number of tag accesses
system.cpu.itb_walker_cache.tags.data_accesses            0                       # Number of data accesses
system.cpu.itb_walker_cache.tags.power_state.pwrStateResidencyTicks::UNDEFINED 137329710500                       # Cumulative time (in ticks) in various power states
system.cpu.power_state.pwrStateResidencyTicks::ON 137329710500                       # Cumulative time (in ticks) in various power states
system.cpu.thread_0.numInsts                        0                       # Number of Instructions committed
system.cpu.thread_0.numOps                          0                       # Number of Ops committed
system.cpu.thread_0.numMemRefs                      0                       # Number of Memory References
system.cpu_clk_domain.clock                       500                       # Clock period in ticks
system.cpu_voltage_domain.voltage                   1                       # Voltage in Volts
system.l2.demand_hits::.cpu.inst                   20                       # number of demand (read+write) hits
system.l2.demand_hits::.cpu.data                 6633                       # number of demand (read+write) hits
system.l2.demand_hits::total                     6653                       # number of demand (read+write) hits
system.l2.overall_hits::.cpu.inst                  20                       # number of overall hits
system.l2.overall_hits::.cpu.data                6633                       # number of overall hits
system.l2.overall_hits::total                    6653                       # number of overall hits
system.l2.demand_misses::.cpu.inst               3952                       # number of demand (read+write) misses
system.l2.demand_misses::.cpu.data             184865                       # number of demand (read+write) misses
system.l2.demand_misses::total                 188817                       # number of demand (read+write) misses
system.l2.overall_misses::.cpu.inst              3952                       # number of overall misses
system.l2.overall_misses::.cpu.data            184865                       # number of overall misses
system.l2.overall_misses::total                188817                       # number of overall misses
system.l2.demand_miss_latency::.cpu.inst    301967000                       # number of demand (read+write) miss cycles
system.l2.demand_miss_latency::.cpu.data  14979562000                       # number of demand (read+write) miss cycles
system.l2.demand_miss_latency::total      15281529000                       # number of demand (read+write) miss cycles
system.l2.overall_miss_latency::.cpu.inst    301967000                       # number of overall miss cycles
system.l2.overall_miss_latency::.cpu.data  14979562000                       # number of overall miss cycles
system.l2.overall_miss_latency::total     15281529000                       # number of overall miss cycles
system.l2.demand_accesses::.cpu.inst             3972                       # number of demand (read+write) accesses
system.l2.demand_accesses::.cpu.data           191498                       # number of demand (read+write) accesses
system.l2.demand_accesses::total               195470                       # number of demand (read+write) accesses
system.l2.overall_accesses::.cpu.inst            3972                       # number of overall (read+write) accesses
system.l2.overall_accesses::.cpu.data          191498                       # number of overall (read+write) accesses
system.l2.overall_accesses::total              195470                       # number of overall (read+write) accesses
system.l2.demand_miss_rate::.cpu.inst        0.994965                       # miss rate for demand accesses
system.l2.demand_miss_rate::.cpu.data        0.965363                       # miss rate for demand accesses
system.l2.demand_miss_rate::total            0.965964                       # miss rate for demand accesses
system.l2.overall_miss_rate::.cpu.inst       0.994965                       # miss rate for overall accesses
system.l2.overall_miss_rate::.cpu.data       0.965363                       # miss rate for overall accesses
system.l2.overall_miss_rate::total           0.965964                       # miss rate for overall accesses
system.l2.demand_avg_miss_latency::.cpu.inst 76408.653846                       # average overall miss latency
system.l2.demand_avg_miss_latency::.cpu.data 81029.735212                       # average overall miss latency
system.l2.demand_avg_miss_latency::total 80933.014506                       # average overall miss latency
system.l2.overall_avg_miss_latency::.cpu.inst 76408.653846                       # average overall miss latency
system.l2.overall_avg_miss_latency::.cpu.data 81029.735212                       # average overall miss latency
system.l2.overall_avg_miss_latency::total 80933.014506                       # average overall miss latency
system.l2.blocked_cycles::no_mshrs                  0                       # number of cycles access was blocked
system.l2.blocked_cycles::no_targets                0                       # number of cycles access was blocked
system.l2.blocked::no_mshrs                         0                       # number of cycles access was blocked
system.l2.blocked::no_targets                       0                       # number of cycles access was blocked
system.l2.avg_blocked_cycles::no_mshrs            nan                       # average number of cycles each access was blocked
system.l2.avg_blocked_cycles::no_targets          nan                       # average number of cycles each access was blocked
system.l2.writebacks::.writebacks              145487                       # number of writebacks
system.l2.writebacks::total                    145487                       # number of writebacks
system.l2.demand_mshr_misses::.cpu.inst          3952                       # number of demand (read+write) MSHR misses
system.l2.demand_mshr_misses::.cpu.data        184865                       # number of demand (read+write) MSHR misses
system.l2.demand_mshr_misses::total            188817                       # number of demand (read+write) MSHR misses
system.l2.overall_mshr_misses::.cpu.inst         3952                       # number of overall MSHR misses
system.l2.overall_mshr_misses::.cpu.data       184865                       # number of overall MSHR misses
system.l2.overall_mshr_misses::total           188817                       # number of overall MSHR misses
system.l2.demand_mshr_miss_latency::.cpu.inst    262447000                       # number of demand (read+write) MSHR miss cycles
system.l2.demand_mshr_miss_latency::.cpu.data  13130912000                       # number of demand (read+write) MSHR miss cycles
system.l2.demand_mshr_miss_latency::total  13393359000                       # number of demand (read+write) MSHR miss cycles
system.l2.overall_mshr_miss_latency::.cpu.inst    262447000                       # number of overall MSHR miss cycles
system.l2.overall_mshr_miss_latency::.cpu.data  13130912000                       # number of overall MSHR miss cycles
system.l2.overall_mshr_miss_latency::total  13393359000                       # number of overall MSHR miss cycles
system.l2.demand_mshr_miss_rate::.cpu.inst     0.994965                       # mshr miss rate for demand accesses
system.l2.demand_mshr_miss_rate::.cpu.data     0.965363                       # mshr miss rate for demand accesses
system.l2.demand_mshr_miss_rate::total       0.965964                       # mshr miss rate for demand accesses
system.l2.overall_mshr_miss_rate::.cpu.inst     0.994965                       # mshr miss rate for overall accesses
system.l2.overall_mshr_miss_rate::.cpu.data     0.965363                       # mshr miss rate for overall accesses
system.l2.overall_mshr_miss_rate::total      0.965964                       # mshr miss rate for overall accesses
system.l2.demand_avg_mshr_miss_latency::.cpu.inst 66408.653846                       # average overall mshr miss latency
system.l2.demand_avg_mshr_miss_latency::.cpu.data 71029.735212                       # average overall mshr miss latency
system.l2.demand_avg_mshr_miss_latency::total 70933.014506                       # average overall mshr miss latency
system.l2.overall_avg_mshr_miss_latency::.cpu.inst 66408.653846                       # average overall mshr miss latency
system.l2.overall_avg_mshr_miss_latency::.cpu.data 71029.735212                       # average overall mshr miss latency
system.l2.overall_avg_mshr_miss_latency::total 70933.014506                       # average overall mshr miss latency
system.l2.replacements                         333098                       # number of replacements
system.l2.WritebackDirty_hits::.writebacks       153853                       # number of WritebackDirty hits
system.l2.WritebackDirty_hits::total           153853                       # number of WritebackDirty hits
system.l2.WritebackDirty_accesses::.writebacks       153853                       # number of WritebackDirty accesses(hits+misses)
system.l2.WritebackDirty_accesses::total       153853                       # number of WritebackDirty accesses(hits+misses)
system.l2.WritebackClean_hits::.writebacks          868                       # number of WritebackClean hits
system.l2.WritebackClean_hits::total              868                       # number of WritebackClean hits
system.l2.WritebackClean_accesses::.writebacks          868                       # number of WritebackClean accesses(hits+misses)
system.l2.WritebackClean_accesses::total          868                       # number of WritebackClean accesses(hits+misses)
system.l2.CleanEvict_mshr_misses::.writebacks        28996                       # number of CleanEvict MSHR misses
system.l2.CleanEvict_mshr_misses::total         28996                       # number of CleanEvict MSHR misses
system.l2.CleanEvict_mshr_miss_rate::.writebacks          inf                       # mshr miss rate for CleanEvict accesses
system.l2.CleanEvict_mshr_miss_rate::total          inf                       # mshr miss rate for CleanEvict accesses
system.l2.ReadExReq_hits::.cpu.data               312                       # number of ReadExReq hits
system.l2.ReadExReq_hits::total                   312                       # number of ReadExReq hits
system.l2.ReadExReq_misses::.cpu.data          110580                       # number of ReadExReq misses
system.l2.ReadExReq_misses::total              110580                       # number of ReadExReq misses
system.l2.ReadExReq_miss_latency::.cpu.data   8379101000                       # number of ReadExReq miss cycles
system.l2.ReadExReq_miss_latency::total    8379101000                       # number of ReadExReq miss cycles
system.l2.ReadExReq_accesses::.cpu.data        110892                       # number of ReadExReq accesses(hits+misses)
system.l2.ReadExReq_accesses::total            110892                       # number of ReadExReq accesses(hits+misses)
system.l2.ReadExReq_miss_rate::.cpu.data     0.997186                       # miss rate for ReadExReq accesses
system.l2.ReadExReq_miss_rate::total         0.997186                       # miss rate for ReadExReq accesses
system.l2.ReadExReq_avg_miss_latency::.cpu.data 75774.109242                       # average ReadExReq miss latency
system.l2.ReadExReq_avg_miss_latency::total 75774.109242                       # average ReadExReq miss latency
system.l2.ReadExReq_mshr_misses::.cpu.data       110580                       # number of ReadExReq MSHR misses
system.l2.ReadExReq_mshr_misses::total         110580                       # number of ReadExReq MSHR misses
system.l2.ReadExReq_mshr_miss_latency::.cpu.data   7273301000                       # number of ReadExReq MSHR miss cycles
system.l2.ReadExReq_mshr_miss_latency::total   7273301000                       # number of ReadExReq MSHR miss cycles
system.l2.ReadExReq_mshr_miss_rate::.cpu.data     0.997186                       # mshr miss rate for ReadExReq accesses
system.l2.ReadExReq_mshr_miss_rate::total     0.997186                       # mshr miss rate for ReadExReq accesses
system.l2.ReadExReq_avg_mshr_miss_latency::.cpu.data 65774.109242                       # average ReadExReq mshr miss latency
system.l2.ReadExReq_avg_mshr_miss_latency::total 65774.109242                       # average ReadExReq mshr miss latency
system.l2.ReadCleanReq_hits::.cpu.inst             20                       # number of ReadCleanReq hits
system.l2.ReadCleanReq_hits::total                 20                       # number of ReadCleanReq hits
system.l2.ReadCleanReq_misses::.cpu.inst         3952                       # number of ReadCleanReq misses
system.l2.ReadCleanReq_misses::total             3952                       # number of ReadCleanReq misses
system.l2.ReadCleanReq_miss_latency::.cpu.inst    301967000                       # number of ReadCleanReq miss cycles
system.l2.ReadCleanReq_miss_latency::total    301967000                       # number of ReadCleanReq miss cycles
system.l2.ReadCleanReq_accesses::.cpu.inst         3972                       # number of ReadCleanReq accesses(hits+misses)
system.l2.ReadCleanReq_accesses::total           3972                       # number of ReadCleanReq accesses(hits+misses)
system.l2.ReadCleanReq_miss_rate::.cpu.inst     0.994965                       # miss rate for ReadCleanReq accesses
system.l2.ReadCleanReq_miss_rate::total      0.994965                       # miss rate for ReadCleanReq accesses
system.l2.ReadCleanReq_avg_miss_latency::.cpu.inst 76408.653846                       # average ReadCleanReq miss latency
system.l2.ReadCleanReq_avg_miss_latency::total 76408.653846                       # average ReadCleanReq miss latency
system.l2.ReadCleanReq_mshr_misses::.cpu.inst         3952                       # number of ReadCleanReq MSHR misses
system.l2.ReadCleanReq_mshr_misses::total         3952                       # number of ReadCleanReq MSHR misses
system.l2.ReadCleanReq_mshr_miss_latency::.cpu.inst    262447000                       # number of ReadCleanReq MSHR miss cycles
system.l2.ReadCleanReq_mshr_miss_latency::total    262447000                       # number of ReadCleanReq MSHR miss cycles
system.l2.ReadCleanReq_mshr_miss_rate::.cpu.inst     0.994965                       # mshr miss rate for ReadCleanReq accesses
system.l2.ReadCleanReq_mshr_miss_rate::total     0.994965                       # mshr miss rate for ReadCleanReq accesses
system.l2.ReadCleanReq_avg_mshr_miss_latency::.cpu.inst 66408.653846                       # average ReadCleanReq mshr miss latency
system.l2.ReadCleanReq_avg_mshr_miss_latency::total 66408.653846                       # average ReadCleanReq mshr miss latency
system.l2.ReadSharedReq_hits::.cpu.data          6321                       # number of ReadSharedReq hits
system.l2.ReadSharedReq_hits::total              6321                       # number of ReadSharedReq hits
system.l2.ReadSharedReq_misses::.cpu.data        74285                       # number of ReadSharedReq misses
system.l2.ReadSharedReq_misses::total           74285                       # number of ReadSharedReq misses
system.l2.ReadSharedReq_miss_latency::.cpu.data   6600461000                       # number of ReadSharedReq miss cycles
system.l2.ReadSharedReq_miss_latency::total   6600461000                       # number of ReadSharedReq miss cycles
system.l2.ReadSharedReq_accesses::.cpu.data        80606                       # number of ReadSharedReq accesses(hits+misses)
system.l2.ReadSharedReq_accesses::total         80606                       # number of ReadSharedReq accesses(hits+misses)
system.l2.ReadSharedReq_miss_rate::.cpu.data     0.921582                       # miss rate for ReadSharedReq accesses
system.l2.ReadSharedReq_miss_rate::total     0.921582                       # miss rate for ReadSharedReq accesses
system.l2.ReadSharedReq_avg_miss_latency::.cpu.data 88853.213973                       # average ReadSharedReq miss latency
system.l2.ReadSharedReq_avg_miss_latency::total 88853.213973                       # average ReadSharedReq miss latency
system.l2.ReadSharedReq_mshr_misses::.cpu.data        74285                       # number of ReadSharedReq MSHR misses
system.l2.ReadSharedReq_mshr_misses::total        74285                       # number of ReadSharedReq MSHR misses
system.l2.ReadSharedReq_mshr_miss_latency::.cpu.data   5857611000                       # number of ReadSharedReq MSHR miss cycles
system.l2.ReadSharedReq_mshr_miss_latency::total   5857611000                       # number of ReadSharedReq MSHR miss cycles
system.l2.ReadSharedReq_mshr_miss_rate::.cpu.data     0.921582                       # mshr miss rate for ReadSharedReq accesses
system.l2.ReadSharedReq_mshr_miss_rate::total     0.921582                       # mshr miss rate for ReadSharedReq accesses
system.l2.ReadSharedReq_avg_mshr_miss_latency::.cpu.data 78853.213973                       # average ReadSharedReq mshr miss latency
system.l2.ReadSharedReq_avg_mshr_miss_latency::total 78853.213973                       # average ReadSharedReq mshr miss latency
system.l2.power_state.pwrStateResidencyTicks::UNDEFINED 137329710500                       # Cumulative time (in ticks) in various power states
system.l2.tags.tagsinuse                  4085.897065                       # Cycle average of tags in use
system.l2.tags.total_refs                      354744                       # Total number of references to valid blocks.
system.l2.tags.sampled_refs                    337194                       # Sample count of references to valid blocks.
system.l2.tags.avg_refs                      1.052047                       # Average number of references to valid blocks.
system.l2.tags.warmup_cycle                     77000                       # Cycle when the warmup percentage was hit.
system.l2.tags.occ_blocks::.writebacks    2038.677949                       # Average occupied blocks per requestor
system.l2.tags.occ_blocks::.cpu.inst        30.489910                       # Average occupied blocks per requestor
system.l2.tags.occ_blocks::.cpu.data      2016.729206                       # Average occupied blocks per requestor
system.l2.tags.occ_percent::.writebacks      0.497724                       # Average percentage of cache occupancy
system.l2.tags.occ_percent::.cpu.inst        0.007444                       # Average percentage of cache occupancy
system.l2.tags.occ_percent::.cpu.data        0.492366                       # Average percentage of cache occupancy
system.l2.tags.occ_percent::total            0.997533                       # Average percentage of cache occupancy
system.l2.tags.occ_task_id_blocks::1024          4096                       # Occupied blocks per task id
system.l2.tags.age_task_id_blocks_1024::0          162                       # Occupied blocks per task id
system.l2.tags.age_task_id_blocks_1024::1         1142                       # Occupied blocks per task id
system.l2.tags.age_task_id_blocks_1024::2         2792                       # Occupied blocks per task id
system.l2.tags.occ_task_id_percent::1024            1                       # Percentage of cache occupancy per task id
system.l2.tags.tag_accesses                   1104674                       # Number of tag accesses
system.l2.tags.data_accesses                  1104674                       # Number of data accesses
system.l2.tags.power_state.pwrStateResidencyTicks::UNDEFINED 137329710500                       # Cumulative time (in ticks) in various power states
system.mem_ctrls.avgPriority_.writebacks::samples     76691.00                       # Average QoS priority value for accepted requests
system.mem_ctrls.avgPriority_.cpu.inst::samples      3952.00                       # Average QoS priority value for accepted requests
system.mem_ctrls.avgPriority_.cpu.data::samples    183769.00                       # Average QoS priority value for accepted requests
system.mem_ctrls.priorityMinLatency      0.000000018750                       # per QoS priority minimum request to response latency (s)
system.mem_ctrls.priorityMaxLatency      0.032545585250                       # per QoS priority maximum request to response latency (s)
system.mem_ctrls.numReadWriteTurnArounds         4305                       # Number of turnarounds from READ to WRITE
system.mem_ctrls.numWriteReadTurnArounds         4305                       # Number of turnarounds from WRITE to READ
system.mem_ctrls.numStayReadState              555019                       # Number of times bus staying in READ state
system.mem_ctrls.numStayWriteState              72459                       # Number of times bus staying in WRITE state
system.mem_ctrls.readReqs                      188817                       # Number of read requests accepted
system.mem_ctrls.writeReqs                     145487                       # Number of write requests accepted
system.mem_ctrls.readBursts                    188817                       # Number of controller read bursts, including those serviced by the write queue
system.mem_ctrls.writeBursts                   145487                       # Number of controller write bursts, including those merged in the write queue
system.mem_ctrls.servicedByWrQ                   1096                       # Number of controller read bursts serviced by the write queue
system.mem_ctrls.mergedWrBursts                 68796                       # Number of controller write bursts merged with an existing one
system.mem_ctrls.neitherReadNorWriteReqs            0                       # Number of requests that are neither read nor write
system.mem_ctrls.avgRdQLen                       1.00                       # Average read queue length when enqueuing
system.mem_ctrls.avgWrQLen                      25.00                       # Average write queue length when enqueuing
system.mem_ctrls.numRdRetry                         0                       # Number of times read queue was full causing retry
system.mem_ctrls.numWrRetry                         0                       # Number of times write queue was full causing retry
system.mem_ctrls.readPktSize::0                     0                       # Read request sizes (log2)
system.mem_ctrls.readPktSize::1                     0                       # Read request sizes (log2)
system.mem_ctrls.readPktSize::2                     0                       # Read request sizes (log2)
system.mem_ctrls.readPktSize::3                     0                       # Read request sizes (log2)
system.mem_ctrls.readPktSize::4                     0                       # Read request sizes (log2)
system.mem_ctrls.readPktSize::5                188817                       # Read request sizes (log2)
system.mem_ctrls.writePktSize::0                    0                       # Write request sizes (log2)
system.mem_ctrls.writePktSize::1                    0                       # Write request sizes (log2)
system.mem_ctrls.writePktSize::2                    0                       # Write request sizes (log2)
system.mem_ctrls.writePktSize::3                    0                       # Write request sizes (log2)
system.mem_ctrls.writePktSize::4                    0                       # Write request sizes (log2)
system.mem_ctrls.writePktSize::5               145487                       # Write request sizes (log2)
system.mem_ctrls.rdQLenPdf::0                  187699                       # What read queue length does an incoming req see
system.mem_ctrls.rdQLenPdf::1                      22                       # What read queue length does an incoming req see
system.mem_ctrls.rdQLenPdf::2                       0                       # What read queue length does an incoming req see
system.mem_ctrls.rdQLenPdf::3                       0                       # What read queue length does an incoming req see
system.mem_ctrls.rdQLenPdf::4                       0                       # What read queue length does an incoming req see
system.mem_ctrls.rdQLenPdf::5                       0                       # What read queue length does an incoming req see
system.mem_ctrls.rdQLenPdf::6                       0                       # What read queue length does an incoming req see
system.mem_ctrls.rdQLenPdf::7                       0                       # What read queue length does an incoming req see
system.mem_ctrls.rdQLenPdf::8                       0                       # What read queue length does an incoming req see
system.mem_ctrls.rdQLenPdf::9                       0                       # What read queue length does an incoming req see
system.mem_ctrls.rdQLenPdf::10                      0                       # What read queue length does an incoming req see
system.mem_ctrls.rdQLenPdf::11                      0                       # What read queue length does an incoming req see
system.mem_ctrls.rdQLenPdf::12                      0                       # What read queue length does an incoming req see
system.mem_ctrls.rdQLenPdf::13                      0                       # What read queue length does an incoming req see
system.mem_ctrls.rdQLenPdf::14                      0                       # What read queue length does an incoming req see
system.mem_ctrls.rdQLenPdf::15                      0                       # What read queue length does an incoming req see
system.mem_ctrls.rdQLenPdf::16                      0                       # What read queue length does an incoming req see
system.mem_ctrls.rdQLenPdf::17                      0                       # What read queue length does an incoming req see
system.mem_ctrls.rdQLenPdf::18                      0                       # What read queue length does an incoming req see
system.mem_ctrls.rdQLenPdf::19                      0                       # What read queue length does an incoming req see
system.mem_ctrls.rdQLenPdf::20                      0                       # What read queue length does an incoming req see
system.mem_ctrls.rdQLenPdf::21                      0                       # What read queue length does an incoming req see
system.mem_ctrls.rdQLenPdf::22                      0                       # What read queue length does an incoming req see
system.mem_ctrls.rdQLenPdf::23                      0                       # What read queue length does an incoming req see
system.mem_ctrls.rdQLenPdf::24                      0                       # What read queue length does an incoming req see
system.mem_ctrls.rdQLenPdf::25                      0                       # What read queue length does an incoming req see
system.mem_ctrls.rdQLenPdf::26                      0                       # What read queue length does an incoming req see
system.mem_ctrls.rdQLenPdf::27                      0                       # What read queue length does an incoming req see
system.mem_ctrls.rdQLenPdf::28                      0                       # What read queue length does an incoming req see
system.mem_ctrls.rdQLenPdf::29                      0                       # What read queue length does an incoming req see
system.mem_ctrls.rdQLenPdf::30                      0                       # What read queue length does an incoming req see
system.mem_ctrls.rdQLenPdf::31                      0                       # What read queue length does an incoming req see
system.mem_ctrls.wrQLenPdf::0                       1                       # What write queue length does an incoming req see
system.mem_ctrls.wrQLenPdf::1                       1                       # What write queue length does an incoming req see
system.mem_ctrls.wrQLenPdf::2                       1                       # What write queue length does an incoming req see
system.mem_ctrls.wrQLenPdf::3                       1                       # What write queue length does an incoming req see
system.mem_ctrls.wrQLenPdf::4                       1                       # What write queue length does an incoming req see
system.mem_ctrls.wrQLenPdf::5                       1                       # What write queue length does an incoming req see
system.mem_ctrls.wrQLenPdf::6                       1                       # What write queue length does an incoming req see
system.mem_ctrls.wrQLenPdf::7                       1                       # What write queue length does an incoming req see
system.mem_ctrls.wrQLenPdf::8                       1                       # What write queue length does an incoming req see
system.mem_ctrls.wrQLenPdf::9                       1                       # What write queue length does an incoming req see
system.mem_ctrls.wrQLenPdf::10                      1                       # What write queue length does an incoming req see
system.mem_ctrls.wrQLenPdf::11                      1                       # What write queue length does an incoming req see
system.mem_ctrls.wrQLenPdf::12                      1                       # What write queue length does an incoming req see
system.mem_ctrls.wrQLenPdf::13                      1                       # What write queue length does an incoming req see
system.mem_ctrls.wrQLenPdf::14                      1                       # What write queue length does an incoming req see
system.mem_ctrls.wrQLenPdf::15                   3765                       # What write queue length does an incoming req see
system.mem_ctrls.wrQLenPdf::16                   3805                       # What write queue length does an incoming req see
system.mem_ctrls.wrQLenPdf::17                   4301                       # What write queue length does an incoming req see
system.mem_ctrls.wrQLenPdf::18                   4310                       # What write queue length does an incoming req see
system.mem_ctrls.wrQLenPdf::19                   4311                       # What write queue length does an incoming req see
system.mem_ctrls.wrQLenPdf::20                   4307                       # What write queue length does an incoming req see
system.mem_ctrls.wrQLenPdf::21                   4306                       # What write queue length does an incoming req see
system.mem_ctrls.wrQLenPdf::22                   4306                       # What write queue length does an incoming req see
system.mem_ctrls.wrQLenPdf::23                   4327                       # What write queue length does an incoming req see
system.mem_ctrls.wrQLenPdf::24                   4307                       # What write queue length does an incoming req see
system.mem_ctrls.wrQLenPdf::25                   4469                       # What write queue length does an incoming req see
system.mem_ctrls.wrQLenPdf::26                   4318                       # What write queue length does an incoming req see
system.mem_ctrls.wrQLenPdf::27                   4306                       # What write queue length does an incoming req see
system.mem_ctrls.wrQLenPdf::28                   4309                       # What write queue length does an incoming req see
system.mem_ctrls.wrQLenPdf::29                   4306                       # What write queue length does an incoming req see
system.mem_ctrls.wrQLenPdf::30                   4306                       # What write queue length does an incoming req see
system.mem_ctrls.wrQLenPdf::31                   4306                       # What write queue length does an incoming req see
system.mem_ctrls.wrQLenPdf::32                   4305                       # What write queue length does an incoming req see
system.mem_ctrls.wrQLenPdf::33                      6                       # What write queue length does an incoming req see
system.mem_ctrls.wrQLenPdf::34                      0                       # What write queue length does an incoming req see
system.mem_ctrls.wrQLenPdf::35                      0                       # What write queue length does an incoming req see
system.mem_ctrls.wrQLenPdf::36                      0                       # What write queue length does an incoming req see
system.mem_ctrls.wrQLenPdf::37                      0                       # What write queue length does an incoming req see
system.mem_ctrls.wrQLenPdf::38                      0                       # What write queue length does an incoming req see
system.mem_ctrls.wrQLenPdf::39                      0                       # What write queue length does an incoming req see
system.mem_ctrls.wrQLenPdf::40                      0                       # What write queue length does an incoming req see
system.mem_ctrls.wrQLenPdf::41                      0                       # What write queue length does an incoming req see
system.mem_ctrls.wrQLenPdf::42                      0                       # What write queue length does an incoming req see
system.mem_ctrls.wrQLenPdf::43                      0                       # What write queue length does an incoming req see
system.mem_ctrls.wrQLenPdf::44                      0                       # What write queue length does an incoming req see
system.mem_ctrls.wrQLenPdf::45                      0                       # What write queue length does an incoming req see
system.mem_ctrls.wrQLenPdf::46                      0                       # What write queue length does an incoming req see
system.mem_ctrls.wrQLenPdf::47                      0                       # What write queue length does an incoming req see
system.mem_ctrls.wrQLenPdf::48                      0                       # What write queue length does an incoming req see
system.mem_ctrls.wrQLenPdf::49                      0                       # What write queue length does an incoming req see
system.mem_ctrls.wrQLenPdf::50                      0                       # What write queue length does an incoming req see
system.mem_ctrls.wrQLenPdf::51                      0                       # What write queue length does an incoming req see
system.mem_ctrls.wrQLenPdf::52                      0                       # What write queue length does an incoming req see
system.mem_ctrls.wrQLenPdf::53                      0                       # What write queue length does an incoming req see
system.mem_ctrls.wrQLenPdf::54                      0                       # What write queue length does an incoming req see
system.mem_ctrls.wrQLenPdf::55                      0                       # What write queue length does an incoming req see
system.mem_ctrls.wrQLenPdf::56                      0                       # What write queue length does an incoming req see
system.mem_ctrls.wrQLenPdf::57                      0                       # What write queue length does an incoming req see
system.mem_ctrls.wrQLenPdf::58                      0                       # What write queue length does an incoming req see
system.mem_ctrls.wrQLenPdf::59                      0                       # What write queue length does an incoming req see
system.mem_ctrls.wrQLenPdf::60                      0                       # What write queue length does an incoming req see
system.mem_ctrls.wrQLenPdf::61                      0                       # What write queue length does an incoming req see
system.mem_ctrls.wrQLenPdf::62                      0                       # What write queue length does an incoming req see
system.mem_ctrls.wrQLenPdf::63                      0                       # What write queue length does an incoming req see
system.mem_ctrls.rdPerTurnAround::samples         4305                       # Reads before turning the bus around for writes
system.mem_ctrls.rdPerTurnAround::mean      43.598374                       # Reads before turning the bus around for writes
system.mem_ctrls.rdPerTurnAround::gmean     36.510659                       # Reads before turning the bus around for writes
system.mem_ctrls.rdPerTurnAround::stdev    123.038250                       # Reads before turning the bus around for writes
system.mem_ctrls.rdPerTurnAround::0-255          4282     99.47%     99.47% # Reads before turning the bus around for writes
system.mem_ctrls.rdPerTurnAround::256-511           15      0.35%     99.81% # Reads before turning the bus around for writes
system.mem_ctrls.rdPerTurnAround::512-767            5      0.12%     99.93% # Reads before turning the bus around for writes
system.mem_ctrls.rdPerTurnAround::768-1023            1      0.02%     99.95% # Reads before turning the bus around for writes
system.mem_ctrls.rdPerTurnAround::5120-5375            1      0.02%     99.98% # Reads before turning the bus around for writes
system.mem_ctrls.rdPerTurnAround::5632-5887            1      0.02%    100.00% # Reads before turning the bus around for writes
system.mem_ctrls.rdPerTurnAround::total          4305                       # Reads before turning the bus around for writes
system.mem_ctrls.wrPerTurnAround::samples         4305                       # Writes before turning the bus around for reads
system.mem_ctrls.wrPerTurnAround::mean      17.806969                       # Writes before turning the bus around for reads
system.mem_ctrls.wrPerTurnAround::gmean     17.792251                       # Writes before turning the bus around for reads
system.mem_ctrls.wrPerTurnAround::stdev      0.706546                       # Writes before turning the bus around for reads
system.mem_ctrls.wrPerTurnAround::16              514     11.94%     11.94% # Writes before turning the bus around for reads
system.mem_ctrls.wrPerTurnAround::17               27      0.63%     12.57% # Writes before turning the bus around for reads
system.mem_ctrls.wrPerTurnAround::18             3541     82.25%     94.82% # Writes before turning the bus around for reads
system.mem_ctrls.wrPerTurnAround::19              222      5.16%     99.98% # Writes before turning the bus around for reads
system.mem_ctrls.wrPerTurnAround::20                1      0.02%    100.00% # Writes before turning the bus around for reads
system.mem_ctrls.wrPerTurnAround::total          4305                       # Writes before turning the bus around for reads
system.mem_ctrls.bytesReadWrQ                   70144                       # Total number of bytes read from write queue
system.mem_ctrls.bytesReadSys                 6042144                       # Total read bytes from the system interface side
system.mem_ctrls.bytesWrittenSys              4655584                       # Total written bytes from the system interface side
system.mem_ctrls.avgRdBWSys                     44.00                       # Average system read bandwidth in MiByte/s
system.mem_ctrls.avgWrBWSys                     33.90                       # Average system write bandwidth in MiByte/s
system.mem_ctrls.totGap                  137329636500                       # Total gap between requests
system.mem_ctrls.avgGap                     410792.68                       # Average gap between requests
[...]
system.mem_ctrls.dram.bw_total::.cpu.data     43076476                       # Total bandwidth to/from this memory (bytes/s)
system.mem_ctrls.dram.bw_total::total        77898133                       # Total bandwidth to/from this memory (bytes/s)
system.mem_ctrls.dram.readBursts               187721                       # Number of DRAM read bursts
system.mem_ctrls.dram.writeBursts               76659                       # Number of DRAM write bursts
system.mem_ctrls.dram.perBankRdBursts::0        12214                       # Per bank write bursts
system.mem_ctrls.dram.perBankRdBursts::1        11486                       # Per bank write bursts
system.mem_ctrls.dram.perBankRdBursts::2        11396                       # Per bank write bursts
system.mem_ctrls.dram.perBankRdBursts::3        12837                       # Per bank write bursts
system.mem_ctrls.dram.perBankRdBursts::4        11620                       # Per bank write bursts
system.mem_ctrls.dram.perBankRdBursts::5        11309                       # Per bank write bursts
system.mem_ctrls.dram.perBankRdBursts::6        11386                       # Per bank write bursts
system.mem_ctrls.dram.perBankRdBursts::7        11787                       # Per bank write bursts
system.mem_ctrls.dram.perBankRdBursts::8        12161                       # Per bank write bursts
system.mem_ctrls.dram.perBankRdBursts::9        12638                       # Per bank write bursts
system.mem_ctrls.dram.perBankRdBursts::10        12476                       # Per bank write bursts
system.mem_ctrls.dram.perBankRdBursts::11        11213                       # Per bank write bursts
system.mem_ctrls.dram.perBankRdBursts::12        10838                       # Per bank write bursts
system.mem_ctrls.dram.perBankRdBursts::13        11015                       # Per bank write bursts
system.mem_ctrls.dram.perBankRdBursts::14        11368                       # Per bank write bursts
system.mem_ctrls.dram.perBankRdBursts::15        11977                       # Per bank write bursts
system.mem_ctrls.dram.perBankWrBursts::0         4973                       # Per bank write bursts
system.mem_ctrls.dram.perBankWrBursts::1         4684                       # Per bank write bursts
system.mem_ctrls.dram.perBankWrBursts::2         4769                       # Per bank write bursts
system.mem_ctrls.dram.perBankWrBursts::3         5073                       # Per bank write bursts
system.mem_ctrls.dram.perBankWrBursts::4         4638                       # Per bank write bursts
system.mem_ctrls.dram.perBankWrBursts::5         4618                       # Per bank write bursts
system.mem_ctrls.dram.perBankWrBursts::6         4914                       # Per bank write bursts
system.mem_ctrls.dram.perBankWrBursts::7         4505                       # Per bank write bursts
system.mem_ctrls.dram.perBankWrBursts::8         5084                       # Per bank write bursts
system.mem_ctrls.dram.perBankWrBursts::9         5018                       # Per bank write bursts
system.mem_ctrls.dram.perBankWrBursts::10         4970                       # Per bank write bursts
system.mem_ctrls.dram.perBankWrBursts::11         4688                       # Per bank write bursts
system.mem_ctrls.dram.perBankWrBursts::12         4737                       # Per bank write bursts
system.mem_ctrls.dram.perBankWrBursts::13         4538                       # Per bank write bursts
system.mem_ctrls.dram.perBankWrBursts::14         4743                       # Per bank write bursts
system.mem_ctrls.dram.perBankWrBursts::15         4707                       # Per bank write bursts
system.mem_ctrls.dram.totQLat              2164077750                       # Total ticks spent queuing
system.mem_ctrls.dram.totBusLat             938605000                       # Total ticks spent in databus transfers
system.mem_ctrls.dram.totMemAccLat         5683846500                       # Total ticks spent from burst creation until serviced by the DRAM
system.mem_ctrls.dram.avgQLat                11528.16                       # Average queueing delay per DRAM burst
system.mem_ctrls.dram.avgBusLat               5000.00                       # Average bus latency per DRAM burst
system.mem_ctrls.dram.avgMemAccLat           30278.16                       # Average memory access latency per DRAM burst
system.mem_ctrls.dram.readRowHits              120611                       # Number of row buffer hits during reads
system.mem_ctrls.dram.writeRowHits              66567                       # Number of row buffer hits during writes
system.mem_ctrls.dram.readRowHitRate            64.25                       # Row buffer hit rate for reads
system.mem_ctrls.dram.writeRowHitRate           86.84                       # Row buffer hit rate for writes
system.mem_ctrls.dram.bytesPerActivate::samples        77194                       # Bytes accessed per row activation
system.mem_ctrls.dram.bytesPerActivate::mean   219.153198                       # Bytes accessed per row activation
system.mem_ctrls.dram.bytesPerActivate::gmean   126.600120                       # Bytes accessed per row activation
system.mem_ctrls.dram.bytesPerActivate::stdev   274.441320                       # Bytes accessed per row activation
system.mem_ctrls.dram.bytesPerActivate::0-127        46826     60.66%     60.66% # Bytes accessed per row activation
system.mem_ctrls.dram.bytesPerActivate::128-255         7182      9.30%     69.96% # Bytes accessed per row activation
system.mem_ctrls.dram.bytesPerActivate::256-383        10762     13.94%     83.91% # Bytes accessed per row activation
system.mem_ctrls.dram.bytesPerActivate::384-511         1687      2.19%     86.09% # Bytes accessed per row activation
system.mem_ctrls.dram.bytesPerActivate::512-639         1759      2.28%     88.37% # Bytes accessed per row activation
system.mem_ctrls.dram.bytesPerActivate::640-767         2011      2.61%     90.97% # Bytes accessed per row activation
system.mem_ctrls.dram.bytesPerActivate::768-895         1344      1.74%     92.72% # Bytes accessed per row activation
system.mem_ctrls.dram.bytesPerActivate::896-1023         1119      1.45%     94.17% # Bytes accessed per row activation
system.mem_ctrls.dram.bytesPerActivate::1024-1151         4504      5.83%    100.00% # Bytes accessed per row activation
system.mem_ctrls.dram.bytesPerActivate::total        77194                       # Bytes accessed per row activation
system.mem_ctrls.dram.bytesRead              12014144                       # Total number of bytes read from DRAM
system.mem_ctrls.dram.bytesWritten            4906176                       # Total number of bytes written to DRAM
system.mem_ctrls.dram.avgRdBW               87.483939                       # Average DRAM read bandwidth in MiBytes/s
system.mem_ctrls.dram.avgWrBW               35.725525                       # Average DRAM write bandwidth in MiBytes/s
system.mem_ctrls.dram.peakBW                 12800.00                       # Theoretical peak bandwidth in MiByte/s
system.mem_ctrls.dram.busUtil                    0.96                       # Data bus utilization in percentage
system.mem_ctrls.dram.busUtilRead                0.68                       # Data bus utilization in percentage for reads
system.mem_ctrls.dram.busUtilWrite               0.28                       # Data bus utilization in percentage for writes
system.mem_ctrls.dram.pageHitRate               70.80                       # Row buffer hit rate, read and write combined
system.mem_ctrls.dram.power_state.pwrStateResidencyTicks::UNDEFINED 137329710500                       # Cumulative time (in ticks) in various power states
system.mem_ctrls.dram.rank0.actEnergy       278881260                       # Energy for activate commands per rank (pJ)
system.mem_ctrls.dram.rank0.preEnergy       148213725                       # Energy for precharge commands per rank (pJ)
system.mem_ctrls.dram.rank0.readEnergy      671409900                       # Energy for read commands per rank (pJ)
system.mem_ctrls.dram.rank0.writeEnergy     199268280                       # Energy for write commands per rank (pJ)
system.mem_ctrls.dram.rank0.refreshEnergy 10840405680.000002                       # Energy for refresh commands per rank (pJ)
system.mem_ctrls.dram.rank0.actBackEnergy  24218658180                       # Energy for active background per rank (pJ)
system.mem_ctrls.dram.rank0.preBackEnergy  32339949600                       # Energy for precharge background per rank (pJ)
system.mem_ctrls.dram.rank0.actPowerDownEnergy            0                       # Energy for active power-down per rank (pJ)
system.mem_ctrls.dram.rank0.prePowerDownEnergy            0                       # Energy for precharge power-down per rank (pJ)
system.mem_ctrls.dram.rank0.selfRefreshEnergy            0                       # Energy for self refresh per rank (pJ)
system.mem_ctrls.dram.rank0.totalEnergy   68696786625                       # Total energy per rank (pJ)
system.mem_ctrls.dram.rank0.averagePower   500.232516                       # Core power per rank (mW)
system.mem_ctrls.dram.rank0.totalIdleTime            0                       # Total Idle time Per DRAM Rank
system.mem_ctrls.dram.rank0.pwrStateTime::IDLE  83691367250                       # Time in different power states
system.mem_ctrls.dram.rank0.pwrStateTime::REF   4585620000                       # Time in different power states
system.mem_ctrls.dram.rank0.pwrStateTime::SREF            0                       # Time in different power states
system.mem_ctrls.dram.rank0.pwrStateTime::PRE_PDN            0                       # Time in different power states
system.mem_ctrls.dram.rank0.pwrStateTime::ACT  49052723250                       # Time in different power states
system.mem_ctrls.dram.rank0.pwrStateTime::ACT_PDN            0                       # Time in different power states
system.mem_ctrls.dram.rank1.actEnergy       272341020                       # Energy for activate commands per rank (pJ)
system.mem_ctrls.dram.rank1.preEnergy       144737505                       # Energy for precharge commands per rank (pJ)
system.mem_ctrls.dram.rank1.readEnergy      668918040                       # Energy for read commands per rank (pJ)
system.mem_ctrls.dram.rank1.writeEnergy     200891700                       # Energy for write commands per rank (pJ)
system.mem_ctrls.dram.rank1.refreshEnergy 10840405680.000002                       # Energy for refresh commands per rank (pJ)
system.mem_ctrls.dram.rank1.actBackEnergy  24809884410                       # Energy for active background per rank (pJ)
system.mem_ctrls.dram.rank1.preBackEnergy  31842074880                       # Energy for precharge background per rank (pJ)
system.mem_ctrls.dram.rank1.actPowerDownEnergy            0                       # Energy for active power-down per rank (pJ)
system.mem_ctrls.dram.rank1.prePowerDownEnergy            0                       # Energy for precharge power-down per rank (pJ)
system.mem_ctrls.dram.rank1.selfRefreshEnergy            0                       # Energy for self refresh per rank (pJ)
system.mem_ctrls.dram.rank1.totalEnergy   68779253235                       # Total energy per rank (pJ)
system.mem_ctrls.dram.rank1.averagePower   500.833017                       # Core power per rank (mW)
system.mem_ctrls.dram.rank1.totalIdleTime            0                       # Total Idle time Per DRAM Rank
system.mem_ctrls.dram.rank1.pwrStateTime::IDLE  82340052750                       # Time in different power states
system.mem_ctrls.dram.rank1.pwrStateTime::REF   4585620000                       # Time in different power states
system.mem_ctrls.dram.rank1.pwrStateTime::SREF            0                       # Time in different power states
system.mem_ctrls.dram.rank1.pwrStateTime::PRE_PDN            0                       # Time in different power states
system.mem_ctrls.dram.rank1.pwrStateTime::ACT  50404037750                       # Time in different power states
system.mem_ctrls.dram.rank1.pwrStateTime::ACT_PDN            0                       # Time in different power states
system.mem_ctrls.power_state.pwrStateResidencyTicks::UNDEFINED 137329710500                       # Cumulative time (in ticks) in various power states
system.membus.trans_dist::ReadResp              78237                       # Transaction distribution
system.membus.trans_dist::WritebackDirty       145487                       # Transaction distribution
system.membus.trans_dist::CleanEvict            33868                       # Transaction distribution
system.membus.trans_dist::ReadExReq            110580                       # Transaction distribution
system.membus.trans_dist::ReadExResp           110580                       # Transaction distribution
system.membus.trans_dist::ReadSharedReq         78237                       # Transaction distribution
system.membus.pkt_count_system.l2.mem_side_port::system.mem_ctrls.port       556989                       # Packet count per connected requestor and responder (bytes)
system.membus.pkt_count_system.l2.mem_side_port::total       556989                       # Packet count per connected requestor and responder (bytes)
system.membus.pkt_count::total                 556989                       # Packet count per connected requestor and responder (bytes)
system.membus.pkt_size_system.l2.mem_side_port::system.mem_ctrls.port     10697728                       # Cumulative packet size per connected requestor and responder (bytes)
system.membus.pkt_size_system.l2.mem_side_port::total     10697728                       # Cumulative packet size per connected requestor and responder (bytes)
system.membus.pkt_size::total                10697728                       # Cumulative packet size per connected requestor and responder (bytes)
system.membus.snoops                                0                       # Total snoops (count)
system.membus.snoopTraffic                          0                       # Total snoop traffic (bytes)
system.membus.snoop_fanout::samples            188817                       # Request fanout histogram
system.membus.snoop_fanout::mean                    0                       # Request fanout histogram
system.membus.snoop_fanout::stdev                   0                       # Request fanout histogram
system.membus.snoop_fanout::underflows              0      0.00%      0.00% # Request fanout histogram
system.membus.snoop_fanout::0                  188817    100.00%    100.00% # Request fanout histogram
system.membus.snoop_fanout::1                       0      0.00%    100.00% # Request fanout histogram
system.membus.snoop_fanout::overflows               0      0.00%    100.00% # Request fanout histogram
system.membus.snoop_fanout::min_value               0                       # Request fanout histogram
system.membus.snoop_fanout::max_value               0                       # Request fanout histogram
system.membus.snoop_fanout::total              188817                       # Request fanout histogram
system.membus.power_state.pwrStateResidencyTicks::UNDEFINED 137329710500                       # Cumulative time (in ticks) in various power states
system.membus.reqLayer2.occupancy           659186000                       # Layer occupancy (ticks)
system.membus.reqLayer2.utilization               0.5                       # Layer utilization (%)
system.membus.respLayer1.occupancy          639717500                       # Layer occupancy (ticks)
system.membus.respLayer1.utilization              0.5                       # Layer utilization (%)
system.tol2bus.trans_dist::ReadResp             84578                       # Transaction distribution
system.tol2bus.trans_dist::WritebackDirty       299340                       # Transaction distribution
system.tol2bus.trans_dist::WritebackClean          868                       # Transaction distribution
system.tol2bus.trans_dist::CleanEvict          221160                       # Transaction distribution
system.tol2bus.trans_dist::ReadExReq           110892                       # Transaction distribution
system.tol2bus.trans_dist::ReadExResp          110892                       # Transaction distribution
system.tol2bus.trans_dist::ReadCleanReq          3972                       # Transaction distribution
system.tol2bus.trans_dist::ReadSharedReq        80606                       # Transaction distribution
system.tol2bus.pkt_count_system.cpu.icache.mem_side_port::system.l2.cpu_side_port         8812                       # Packet count per connected requestor and responder (bytes)
system.tol2bus.pkt_count_system.cpu.dcache.mem_side_port::system.l2.cpu_side_port       570398                       # Packet count per connected requestor and responder (bytes)
system.tol2bus.pkt_count::total                579210                       # Packet count per connected requestor and responder (bytes)
system.tol2bus.pkt_size_system.cpu.icache.mem_side_port::system.l2.cpu_side_port       154880                       # Cumulative packet size per connected requestor and responder (bytes)
system.tol2bus.pkt_size_system.cpu.dcache.mem_side_port::system.l2.cpu_side_port     11051232                       # Cumulative packet size per connected requestor and responder (bytes)
system.tol2bus.pkt_size::total               11206112                       # Cumulative packet size per connected requestor and responder (bytes)
system.tol2bus.snoops                          333098                       # Total snoops (count)
system.tol2bus.snoopTraffic                   4655584                       # Total snoop traffic (bytes)
system.tol2bus.snoop_fanout::samples           528568                       # Request fanout histogram
system.tol2bus.snoop_fanout::mean            0.345725                       # Request fanout histogram
system.tol2bus.snoop_fanout::stdev           0.475604                       # Request fanout histogram
system.tol2bus.snoop_fanout::underflows             0      0.00%      0.00% # Request fanout histogram
system.tol2bus.snoop_fanout::0                 345829     65.43%     65.43% # Request fanout histogram
system.tol2bus.snoop_fanout::1                 182739     34.57%    100.00% # Request fanout histogram
system.tol2bus.snoop_fanout::2                      0      0.00%    100.00% # Request fanout histogram
system.tol2bus.snoop_fanout::3                      0      0.00%    100.00% # Request fanout histogram
system.tol2bus.snoop_fanout::4                      0      0.00%    100.00% # Request fanout histogram
system.tol2bus.snoop_fanout::overflows              0      0.00%    100.00% # Request fanout histogram
system.tol2bus.snoop_fanout::min_value              0                       # Request fanout histogram
system.tol2bus.snoop_fanout::max_value              1                       # Request fanout histogram
system.tol2bus.snoop_fanout::total             528568                       # Request fanout histogram
system.tol2bus.power_state.pwrStateResidencyTicks::UNDEFINED 137329710500                       # Cumulative time (in ticks) in various power states
system.tol2bus.reqLayer0.occupancy          269230500                       # Layer occupancy (ticks)
system.tol2bus.reqLayer0.utilization              0.2                       # Layer utilization (%)
system.tol2bus.respLayer0.occupancy           3972000                       # Layer occupancy (ticks)
system.tol2bus.respLayer0.utilization             0.0                       # Layer utilization (%)
system.tol2bus.respLayer1.occupancy         191498000                       # Layer occupancy (ticks)
system.tol2bus.respLayer1.utilization             0.1                       # Layer utilization (%)
system.voltage_domain.voltage                       1                       # Voltage in Volts

---------- End Simulation Statistics   ----------
