
---------- Begin Simulation Statistics ----------
final_tick                                 1465172500                       # Number of ticks from beginning of simulation (restored from checkpoints and never reset)
host_inst_rate                                 426670                       # Simulator instruction rate (inst/s)
host_mem_usage                                 681352                       # Number of bytes of host memory used
host_op_rate                                   796356                       # Simulator op (including micro ops) rate (op/s)
host_seconds                                     1.10                       # Real time elapsed on the host
host_tick_rate                             1329393253                       # Simulator tick rate (ticks/s)
sim_freq                                 1000000000000                       # Frequency of simulated ticks
sim_insts                                      470192                       # Number of instructions simulated
sim_ops                                        877675                       # Number of ops (including micro ops) simulated
sim_seconds                                  0.001465                       # Number of seconds simulated
sim_ticks                                  1465172500                       # Number of ticks simulated
system.cpu.Branches                             72572                       # Number of branches fetched
system.cpu.committedInsts                      470192                       # Number of instructions committed
system.cpu.committedOps                        877675                       # Number of ops (including micro ops) committed
system.cpu.idle_fraction                     0.000000                       # Percentage of idle cycles
system.cpu.not_idle_fraction                 1.000000                       # Percentage of non-idle cycles
system.cpu.numCycles                          2930345                       # number of cpu cycles simulated
system.cpu.numWorkItemsCompleted                    0                       # number of work items this cpu completed
system.cpu.numWorkItemsStarted                      0                       # number of work items this cpu started
system.cpu.num_busy_cycles               2930344.998000                       # Number of busy cycles
system.cpu.num_cc_register_reads               329747                       # number of times the CC registers were read
system.cpu.num_cc_register_writes              220558                       # number of times the CC registers were written
system.cpu.num_conditional_control_insts        50036                       # number of instructions that are conditional controls
system.cpu.num_fp_alu_accesses                 253735                       # Number of float alu accesses
system.cpu.num_fp_insts                        253735                       # number of float instructions
system.cpu.num_fp_register_reads               239399                       # number of times the floating registers were read
system.cpu.num_fp_register_writes              213269                       # number of times the floating registers were written
system.cpu.num_func_calls                       13686                       # number of times a function call or return occured
system.cpu.num_idle_cycles                   0.002000                       # Number of idle cycles
system.cpu.num_int_alu_accesses                720164                       # Number of integer alu accesses
system.cpu.num_int_insts                       720164                       # number of integer instructions
system.cpu.num_int_register_reads             1479551                       # number of times the integer registers were read
system.cpu.num_int_register_writes             517683                       # number of times the integer registers were written
system.cpu.num_load_insts                      144767                       # Number of load instructions
system.cpu.num_mem_refs                        211967                       # number of memory refs
system.cpu.num_store_insts                      67200                       # Number of store instructions
system.cpu.num_vec_alu_accesses                     0                       # Number of vector alu accesses
system.cpu.num_vec_insts                            0                       # number of vector instructions
system.cpu.num_vec_register_reads                   0                       # number of times the vector registers were read
system.cpu.num_vec_register_writes                  0                       # number of times the vector registers were written
system.cpu.op_class::No_OpClass                 11335      1.29%      1.29% # Class of executed instruction
system.cpu.op_class::IntAlu                    504497     57.47%     58.76% # Class of executed instruction
system.cpu.op_class::IntMult                      123      0.01%     58.78% # Class of executed instruction
system.cpu.op_class::IntDiv                      2125      0.24%     59.02% # Class of executed instruction
system.cpu.op_class::FloatAdd                   69680      7.94%     66.96% # Class of executed instruction
system.cpu.op_class::FloatCmp                       0      0.00%     66.96% # Class of executed instruction
system.cpu.op_class::FloatCvt                      32      0.00%     66.96% # Class of executed instruction
system.cpu.op_class::FloatMult                      0      0.00%     66.96% # Class of executed instruction
system.cpu.op_class::FloatMultAcc                   0      0.00%     66.96% # Class of executed instruction
system.cpu.op_class::FloatDiv                       0      0.00%     66.96% # Class of executed instruction
system.cpu.op_class::FloatMisc                      0      0.00%     66.96% # Class of executed instruction
system.cpu.op_class::FloatSqrt                      0      0.00%     66.96% # Class of executed instruction
system.cpu.op_class::SimdAdd                      554      0.06%     67.02% # Class of executed instruction
system.cpu.op_class::SimdAddAcc                     0      0.00%     67.02% # Class of executed instruction
system.cpu.op_class::SimdAlu                     9039      1.03%     68.05% # Class of executed instruction
system.cpu.op_class::SimdCmp                        0      0.00%     68.05% # Class of executed instruction
system.cpu.op_class::SimdCvt                     1366      0.16%     68.21% # Class of executed instruction
system.cpu.op_class::SimdMisc                   11506      1.31%     69.52% # Class of executed instruction
system.cpu.op_class::SimdMult                       0      0.00%     69.52% # Class of executed instruction
system.cpu.op_class::SimdMultAcc                    0      0.00%     69.52% # Class of executed instruction
system.cpu.op_class::SimdShift                    174      0.02%     69.54% # Class of executed instruction
system.cpu.op_class::SimdShiftAcc                   0      0.00%     69.54% # Class of executed instruction
system.cpu.op_class::SimdDiv                        0      0.00%     69.54% # Class of executed instruction
system.cpu.op_class::SimdSqrt                       0      0.00%     69.54% # Class of executed instruction
system.cpu.op_class::SimdFloatAdd               15212      1.73%     71.27% # Class of executed instruction
system.cpu.op_class::SimdFloatAlu                   0      0.00%     71.27% # Class of executed instruction
system.cpu.op_class::SimdFloatCmp                   0      0.00%     71.27% # Class of executed instruction
system.cpu.op_class::SimdFloatCvt               15412      1.76%     73.03% # Class of executed instruction
system.cpu.op_class::SimdFloatDiv                1600      0.18%     73.21% # Class of executed instruction
system.cpu.op_class::SimdFloatMisc                  0      0.00%     73.21% # Class of executed instruction
system.cpu.op_class::SimdFloatMult              22800      2.60%     75.81% # Class of executed instruction
system.cpu.op_class::SimdFloatMultAcc               0      0.00%     75.81% # Class of executed instruction
system.cpu.op_class::SimdFloatSqrt                400      0.05%     75.85% # Class of executed instruction
system.cpu.op_class::SimdReduceAdd                  0      0.00%     75.85% # Class of executed instruction
system.cpu.op_class::SimdReduceAlu                  0      0.00%     75.85% # Class of executed instruction
system.cpu.op_class::SimdReduceCmp                  0      0.00%     75.85% # Class of executed instruction
system.cpu.op_class::SimdFloatReduceAdd             0      0.00%     75.85% # Class of executed instruction
system.cpu.op_class::SimdFloatReduceCmp             0      0.00%     75.85% # Class of executed instruction
system.cpu.op_class::SimdAes                        0      0.00%     75.85% # Class of executed instruction
system.cpu.op_class::SimdAesMix                     0      0.00%     75.85% # Class of executed instruction
system.cpu.op_class::SimdSha1Hash                   0      0.00%     75.85% # Class of executed instruction
system.cpu.op_class::SimdSha1Hash2                  0      0.00%     75.85% # Class of executed instruction
system.cpu.op_class::SimdSha256Hash                 0      0.00%     75.85% # Class of executed instruction
system.cpu.op_class::SimdSha256Hash2                0      0.00%     75.85% # Class of executed instruction
system.cpu.op_class::SimdShaSigma2                  0      0.00%     75.85% # Class of executed instruction
system.cpu.op_class::SimdShaSigma3                  0      0.00%     75.85% # Class of executed instruction
system.cpu.op_class::SimdPredAlu                    0      0.00%     75.85% # Class of executed instruction
system.cpu.op_class::MemRead                    82109      9.35%     85.21% # Class of executed instruction
system.cpu.op_class::MemWrite                   33563      3.82%     89.03% # Class of executed instruction
system.cpu.op_class::FloatMemRead               62658      7.14%     96.17% # Class of executed instruction
system.cpu.op_class::FloatMemWrite              33637      3.83%    100.00% # Class of executed instruction
system.cpu.op_class::IprAccess                      0      0.00%    100.00% # Class of executed instruction
system.cpu.op_class::InstPrefetch                   0      0.00%    100.00% # Class of executed instruction
system.cpu.op_class::total                     877822                       # Class of executed instruction
system.cpu.workload.numSyscalls                    57                       # Number of system calls
system.membus.snoop_filter.hit_multi_requests            0                       # Number of requests hitting in the snoop filter with multiple (>1) holders of the requested data.
system.membus.snoop_filter.hit_multi_snoops            0                       # Number of snoops hitting in the snoop filter with multiple (>1) holders of the requested data.
system.membus.snoop_filter.hit_single_requests          725                       # Number of requests hitting in the snoop filter with a single holder of the requested data.
system.membus.snoop_filter.hit_single_snoops            0                       # Number of snoops hitting in the snoop filter with a single holder of the requested data.
system.membus.snoop_filter.tot_requests          8618                       # Total number of requests made to the snoop filter.
system.membus.snoop_filter.tot_snoops               0                       # Total number of snoops made to the snoop filter.
system.tol2bus.snoop_filter.hit_multi_requests            0                       # Number of requests hitting in the snoop filter with multiple (>1) holders of the requested data.
system.tol2bus.snoop_filter.hit_multi_snoops            0                       # Number of snoops hitting in the snoop filter with multiple (>1) holders of the requested data.
system.tol2bus.snoop_filter.hit_single_requests         1500                       # Number of requests hitting in the snoop filter with a single holder of the requested data.
system.tol2bus.snoop_filter.hit_single_snoops         4271                       # Number of snoops hitting in the snoop filter with a single holder of the requested data.
system.tol2bus.snoop_filter.tot_requests         9439                       # Total number of requests made to the snoop filter.
system.tol2bus.snoop_filter.tot_snoops           4271                       # Total number of snoops made to the snoop filter.
system.clk_domain.clock                          1000                       # Clock period in ticks
system.cpu.dcache.demand_hits::.cpu.data       214445                       # number of demand (read+write) hits
system.cpu.dcache.demand_hits::total           214445                       # number of demand (read+write) hits
system.cpu.dcache.overall_hits::.cpu.data       214445                       # number of overall hits
system.cpu.dcache.overall_hits::total          214445                       # number of overall hits
system.cpu.dcache.demand_misses::.cpu.data         5280                       # number of demand (read+write) misses
system.cpu.dcache.demand_misses::total           5280                       # number of demand (read+write) misses
system.cpu.dcache.overall_misses::.cpu.data         5280                       # number of overall misses
system.cpu.dcache.overall_misses::total          5280                       # number of overall misses
system.cpu.dcache.demand_miss_latency::.cpu.data    409715500                       # number of demand (read+write) miss cycles
system.cpu.dcache.demand_miss_latency::total    409715500                       # number of demand (read+write) miss cycles
system.cpu.dcache.overall_miss_latency::.cpu.data    409715500                       # number of overall miss cycles
system.cpu.dcache.overall_miss_latency::total    409715500                       # number of overall miss cycles
system.cpu.dcache.demand_accesses::.cpu.data       219725                       # number of demand (read+write) accesses
system.cpu.dcache.demand_accesses::total       219725                       # number of demand (read+write) accesses
system.cpu.dcache.overall_accesses::.cpu.data       219725                       # number of overall (read+write) accesses
system.cpu.dcache.overall_accesses::total       219725                       # number of overall (read+write) accesses
system.cpu.dcache.demand_miss_rate::.cpu.data     0.024030                       # miss rate for demand accesses
system.cpu.dcache.demand_miss_rate::total     0.024030                       # miss rate for demand accesses
system.cpu.dcache.overall_miss_rate::.cpu.data     0.024030                       # miss rate for overall accesses
system.cpu.dcache.overall_miss_rate::total     0.024030                       # miss rate for overall accesses
system.cpu.dcache.demand_avg_miss_latency::.cpu.data 77597.632576                       # average overall miss latency
system.cpu.dcache.demand_avg_miss_latency::total 77597.632576                       # average overall miss latency
system.cpu.dcache.overall_avg_miss_latency::.cpu.data 77597.632576                       # average overall miss latency
system.cpu.dcache.overall_avg_miss_latency::total 77597.632576                       # average overall miss latency
system.cpu.dcache.blocked_cycles::no_mshrs            0                       # number of cycles access was blocked
system.cpu.dcache.blocked_cycles::no_targets            0                       # number of cycles access was blocked
system.cpu.dcache.blocked::no_mshrs                 0                       # number of cycles access was blocked
system.cpu.dcache.blocked::no_targets               0                       # number of cycles access was blocked
system.cpu.dcache.avg_blocked_cycles::no_mshrs          nan                       # average number of cycles each access was blocked
system.cpu.dcache.avg_blocked_cycles::no_targets          nan                       # average number of cycles each access was blocked
system.cpu.dcache.writebacks::.writebacks          530                       # number of writebacks
system.cpu.dcache.writebacks::total               530                       # number of writebacks
system.cpu.dcache.demand_mshr_misses::.cpu.data         5280                       # number of demand (read+write) MSHR misses
system.cpu.dcache.demand_mshr_misses::total         5280                       # number of demand (read+write) MSHR misses
system.cpu.dcache.overall_mshr_misses::.cpu.data         5280                       # number of overall MSHR misses
system.cpu.dcache.overall_mshr_misses::total         5280                       # number of overall MSHR misses
system.cpu.dcache.demand_mshr_miss_latency::.cpu.data    404435500                       # number of demand (read+write) MSHR miss cycles
system.cpu.dcache.demand_mshr_miss_latency::total    404435500                       # number of demand (read+write) MSHR miss cycles
system.cpu.dcache.overall_mshr_miss_latency::.cpu.data    404435500                       # number of overall MSHR miss cycles
system.cpu.dcache.overall_mshr_miss_latency::total    404435500                       # number of overall MSHR miss cycles
system.cpu.dcache.demand_mshr_miss_rate::.cpu.data     0.024030                       # mshr miss rate for demand accesses
system.cpu.dcache.demand_mshr_miss_rate::total     0.024030                       # mshr miss rate for demand accesses
system.cpu.dcache.overall_mshr_miss_rate::.cpu.data     0.024030                       # mshr miss rate for overall accesses
system.cpu.dcache.overall_mshr_miss_rate::total     0.024030                       # mshr miss rate for overall accesses
system.cpu.dcache.demand_avg_mshr_miss_latency::.cpu.data 76597.632576                       # average overall mshr miss latency
system.cpu.dcache.demand_avg_mshr_miss_latency::total 76597.632576                       # average overall mshr miss latency
system.cpu.dcache.overall_avg_mshr_miss_latency::.cpu.data 76597.632576                       # average overall mshr miss latency
system.cpu.dcache.overall_avg_mshr_miss_latency::total 76597.632576                       # average overall mshr miss latency
system.cpu.dcache.replacements                   1184                       # number of replacements
system.cpu.dcache.ReadReq_hits::.cpu.data       148401                       # number of ReadReq hits
system.cpu.dcache.ReadReq_hits::total          148401                       # number of ReadReq hits
system.cpu.dcache.ReadReq_misses::.cpu.data         4141                       # number of ReadReq misses
system.cpu.dcache.ReadReq_misses::total          4141                       # number of ReadReq misses
system.cpu.dcache.ReadReq_miss_latency::.cpu.data    323014000                       # number of ReadReq miss cycles
system.cpu.dcache.ReadReq_miss_latency::total    323014000                       # number of ReadReq miss cycles
system.cpu.dcache.ReadReq_accesses::.cpu.data       152542                       # number of ReadReq accesses(hits+misses)
system.cpu.dcache.ReadReq_accesses::total       152542                       # number of ReadReq accesses(hits+misses)
system.cpu.dcache.ReadReq_miss_rate::.cpu.data     0.027147                       # miss rate for ReadReq accesses
system.cpu.dcache.ReadReq_miss_rate::total     0.027147                       # miss rate for ReadReq accesses
system.cpu.dcache.ReadReq_avg_miss_latency::.cpu.data 78003.863801                       # average ReadReq miss latency
system.cpu.dcache.ReadReq_avg_miss_latency::total 78003.863801                       # average ReadReq miss latency
system.cpu.dcache.ReadReq_mshr_misses::.cpu.data         4141                       # number of ReadReq MSHR misses
system.cpu.dcache.ReadReq_mshr_misses::total         4141                       # number of ReadReq MSHR misses
system.cpu.dcache.ReadReq_mshr_miss_latency::.cpu.data    318873000                       # number of ReadReq MSHR miss cycles
system.cpu.dcache.ReadReq_mshr_miss_latency::total    318873000                       # number of ReadReq MSHR miss cycles
system.cpu.dcache.ReadReq_mshr_miss_rate::.cpu.data     0.027147                       # mshr miss rate for ReadReq accesses
system.cpu.dcache.ReadReq_mshr_miss_rate::total     0.027147                       # mshr miss rate for ReadReq accesses
system.cpu.dcache.ReadReq_avg_mshr_miss_latency::.cpu.data 77003.863801                       # average ReadReq mshr miss latency
system.cpu.dcache.ReadReq_avg_mshr_miss_latency::total 77003.863801                       # average ReadReq mshr miss latency
system.cpu.dcache.WriteReq_hits::.cpu.data        66044                       # number of WriteReq hits
system.cpu.dcache.WriteReq_hits::total          66044                       # number of WriteReq hits
system.cpu.dcache.WriteReq_misses::.cpu.data         1139                       # number of WriteReq misses
system.cpu.dcache.WriteReq_misses::total         1139                       # number of WriteReq misses
system.cpu.dcache.WriteReq_miss_latency::.cpu.data     86701500                       # number of WriteReq miss cycles
system.cpu.dcache.WriteReq_miss_latency::total     86701500                       # number of WriteReq miss cycles
system.cpu.dcache.WriteReq_accesses::.cpu.data        67183                       # number of WriteReq accesses(hits+misses)
system.cpu.dcache.WriteReq_accesses::total        67183                       # number of WriteReq accesses(hits+misses)
system.cpu.dcache.WriteReq_miss_rate::.cpu.data     0.016954                       # miss rate for WriteReq accesses
system.cpu.dcache.WriteReq_miss_rate::total     0.016954                       # miss rate for WriteReq accesses
system.cpu.dcache.WriteReq_avg_miss_latency::.cpu.data 76120.719930                       # average WriteReq miss latency
system.cpu.dcache.WriteReq_avg_miss_latency::total 76120.719930                       # average WriteReq miss latency
system.cpu.dcache.WriteReq_mshr_misses::.cpu.data         1139                       # number of WriteReq MSHR misses
system.cpu.dcache.WriteReq_mshr_misses::total         1139                       # number of WriteReq MSHR misses
system.cpu.dcache.WriteReq_mshr_miss_latency::.cpu.data     85562500                       # number of WriteReq MSHR miss cycles
system.cpu.dcache.WriteReq_mshr_miss_latency::total     85562500                       # number of WriteReq MSHR miss cycles
system.cpu.dcache.WriteReq_mshr_miss_rate::.cpu.data     0.016954                       # mshr miss rate for WriteReq accesses
system.cpu.dcache.WriteReq_mshr_miss_rate::total     0.016954                       # mshr miss rate for WriteReq accesses
system.cpu.dcache.WriteReq_avg_mshr_miss_latency::.cpu.data 75120.719930                       # average WriteReq mshr miss latency
system.cpu.dcache.WriteReq_avg_mshr_miss_latency::total 75120.719930                       # average WriteReq mshr miss latency
system.cpu.dcache.power_state.pwrStateResidencyTicks::UNDEFINED   1465172500                       # Cumulative time (in ticks) in various power states
system.cpu.dcache.tags.tagsinuse          3141.277619                       # Cycle average of tags in use
system.cpu.dcache.tags.total_refs              219725                       # Total number of references to valid blocks.
system.cpu.dcache.tags.sampled_refs              5280                       # Sample count of references to valid blocks.
system.cpu.dcache.tags.avg_refs             41.614583                       # Average number of references to valid blocks.
system.cpu.dcache.tags.warmup_cycle            174500                       # Cycle when the warmup percentage was hit.
system.cpu.dcache.tags.occ_blocks::.cpu.data  3141.277619                       # Average occupied blocks per requestor
system.cpu.dcache.tags.occ_percent::.cpu.data     0.766913                       # Average percentage of cache occupancy
system.cpu.dcache.tags.occ_percent::total     0.766913                       # Average percentage of cache occupancy
system.cpu.dcache.tags.occ_task_id_blocks::1024         4096                       # Occupied blocks per task id
system.cpu.dcache.tags.age_task_id_blocks_1024::0           19                       # Occupied blocks per task id
system.cpu.dcache.tags.age_task_id_blocks_1024::1           19                       # Occupied blocks per task id
system.cpu.dcache.tags.age_task_id_blocks_1024::2         2421                       # Occupied blocks per task id
system.cpu.dcache.tags.age_task_id_blocks_1024::3         1637                       # Occupied blocks per task id
system.cpu.dcache.tags.occ_task_id_percent::1024            1                       # Percentage of cache occupancy per task id
system.cpu.dcache.tags.tag_accesses          14067680                       # Number of tag accesses
system.cpu.dcache.tags.data_accesses         14067680                       # Number of data accesses
system.cpu.dcache.tags.power_state.pwrStateResidencyTicks::UNDEFINED   1465172500                       # Cumulative time (in ticks) in various power states
system.cpu.dtb.rdAccesses                      152616                       # TLB accesses on read requests
system.cpu.dtb.wrAccesses                       67200                       # TLB accesses on write requests
system.cpu.dtb.rdMisses                           236                       # TLB misses on read requests
system.cpu.dtb.wrMisses                            43                       # TLB misses on write requests
system.cpu.dtb.walker.power_state.pwrStateResidencyTicks::UNDEFINED   1465172500                       # Cumulative time (in ticks) in various power states
system.cpu.dtb_walker_cache.blocked_cycles::no_mshrs            0                       # number of cycles access was blocked
system.cpu.dtb_walker_cache.blocked_cycles::no_targets            0                       # number of cycles access was blocked
system.cpu.dtb_walker_cache.blocked::no_mshrs            0                       # number of cycles access was blocked
system.cpu.dtb_walker_cache.blocked::no_targets            0                       # number of cycles access was blocked
system.cpu.dtb_walker_cache.avg_blocked_cycles::no_mshrs          nan                       # average number of cycles each access was blocked
system.cpu.dtb_walker_cache.avg_blocked_cycles::no_targets          nan                       # average number of cycles each access was blocked
system.cpu.dtb_walker_cache.replacements            0                       # number of replacements
system.cpu.dtb_walker_cache.power_state.pwrStateResidencyTicks::UNDEFINED   1465172500                       # Cumulative time (in ticks) in various power states
system.cpu.dtb_walker_cache.tags.tagsinuse            0                       # Cycle average of tags in use
system.cpu.dtb_walker_cache.tags.total_refs            0                       # Total number of references to valid blocks.
system.cpu.dtb_walker_cache.tags.sampled_refs            0                       # Sample count of references to valid blocks.
system.cpu.dtb_walker_cache.tags.avg_refs          nan                       # Average number of references to valid blocks.
system.cpu.dtb_walker_cache.tags.warmup_cycle            0                       # Cycle when the warmup percentage was hit.
system.cpu.dtb_walker_cache.tags.tag_accesses            0                       # Number of tag accesses
system.cpu.dtb_walker_cache.tags.data_accesses            0                       # Number of data accesses
system.cpu.dtb_walker_cache.tags.power_state.pwrStateResidencyTicks::UNDEFINED   1465172500                       # Cumulative time (in ticks) in various power states
system.cpu.icache.demand_hits::.cpu.inst       640210                       # number of demand (read+write) hits
system.cpu.icache.demand_hits::total           640210                       # number of demand (read+write) hits
system.cpu.icache.overall_hits::.cpu.inst       640210                       # number of overall hits
system.cpu.icache.overall_hits::total          640210                       # number of overall hits
system.cpu.icache.demand_misses::.cpu.inst         2659                       # number of demand (read+write) misses
system.cpu.icache.demand_misses::total           2659                       # number of demand (read+write) misses
system.cpu.icache.overall_misses::.cpu.inst         2659                       # number of overall misses
system.cpu.icache.overall_misses::total          2659                       # number of overall misses
system.cpu.icache.demand_miss_latency::.cpu.inst    204904000                       # number of demand (read+write) miss cycles
system.cpu.icache.demand_miss_latency::total    204904000                       # number of demand (read+write) miss cycles
system.cpu.icache.overall_miss_latency::.cpu.inst    204904000                       # number of overall miss cycles
system.cpu.icache.overall_miss_latency::total    204904000                       # number of overall miss cycles
system.cpu.icache.demand_accesses::.cpu.inst       642869                       # number of demand (read+write) accesses
system.cpu.icache.demand_accesses::total       642869                       # number of demand (read+write) accesses
system.cpu.icache.overall_accesses::.cpu.inst       642869                       # number of overall (read+write) accesses
system.cpu.icache.overall_accesses::total       642869                       # number of overall (read+write) accesses
system.cpu.icache.demand_miss_rate::.cpu.inst     0.004136                       # miss rate for demand accesses
system.cpu.icache.demand_miss_rate::total     0.004136                       # miss rate for demand accesses
system.cpu.icache.overall_miss_rate::.cpu.inst     0.004136                       # miss rate for overall accesses
system.cpu.icache.overall_miss_rate::total     0.004136                       # miss rate for overall accesses
system.cpu.icache.demand_avg_miss_latency::.cpu.inst 77060.549079                       # average overall miss latency
system.cpu.icache.demand_avg_miss_latency::total 77060.549079                       # average overall miss latency
system.cpu.icache.overall_avg_miss_latency::.cpu.inst 77060.549079                       # average overall miss latency
system.cpu.icache.overall_avg_miss_latency::total 77060.549079                       # average overall miss latency
system.cpu.icache.blocked_cycles::no_mshrs            0                       # number of cycles access was blocked
system.cpu.icache.blocked_cycles::no_targets            0                       # number of cycles access was blocked
system.cpu.icache.blocked::no_mshrs                 0                       # number of cycles access was blocked
system.cpu.icache.blocked::no_targets               0                       # number of cycles access was blocked
system.cpu.icache.avg_blocked_cycles::no_mshrs          nan                       # average number of cycles each access was blocked
system.cpu.icache.avg_blocked_cycles::no_targets          nan                       # average number of cycles each access was blocked
system.cpu.icache.writebacks::.writebacks          316                       # number of writebacks
system.cpu.icache.writebacks::total               316                       # number of writebacks
system.cpu.icache.demand_mshr_misses::.cpu.inst         2659                       # number of demand (read+write) MSHR misses
system.cpu.icache.demand_mshr_misses::total         2659                       # number of demand (read+write) MSHR misses
system.cpu.icache.overall_mshr_misses::.cpu.inst         2659                       # number of overall MSHR misses
system.cpu.icache.overall_mshr_misses::total         2659                       # number of overall MSHR misses
system.cpu.icache.demand_mshr_miss_latency::.cpu.inst    202245000                       # number of demand (read+write) MSHR miss cycles
system.cpu.icache.demand_mshr_miss_latency::total    202245000                       # number of demand (read+write) MSHR miss cycles
system.cpu.icache.overall_mshr_miss_latency::.cpu.inst    202245000                       # number of overall MSHR miss cycles
system.cpu.icache.overall_mshr_miss_latency::total    202245000                       # number of overall MSHR miss cycles
system.cpu.icache.demand_mshr_miss_rate::.cpu.inst     0.004136                       # mshr miss rate for demand accesses
system.cpu.icache.demand_mshr_miss_rate::total     0.004136                       # mshr miss rate for demand accesses
system.cpu.icache.overall_mshr_miss_rate::.cpu.inst     0.004136                       # mshr miss rate for overall accesses
system.cpu.icache.overall_mshr_miss_rate::total     0.004136                       # mshr miss rate for overall accesses
system.cpu.icache.demand_avg_mshr_miss_latency::.cpu.inst 76060.549079                       # average overall mshr miss latency
system.cpu.icache.demand_avg_mshr_miss_latency::total 76060.549079                       # average overall mshr miss latency
system.cpu.icache.overall_avg_mshr_miss_latency::.cpu.inst 76060.549079                       # average overall mshr miss latency
system.cpu.icache.overall_avg_mshr_miss_latency::total 76060.549079                       # average overall mshr miss latency
system.cpu.icache.replacements                    316                       # number of replacements
system.cpu.icache.ReadReq_hits::.cpu.inst       640210                       # number of ReadReq hits
system.cpu.icache.ReadReq_hits::total          640210                       # number of ReadReq hits
system.cpu.icache.ReadReq_misses::.cpu.inst         2659                       # number of ReadReq misses
system.cpu.icache.ReadReq_misses::total          2659                       # number of ReadReq misses
system.cpu.icache.ReadReq_miss_latency::.cpu.inst    204904000                       # number of ReadReq miss cycles
system.cpu.icache.ReadReq_miss_latency::total    204904000                       # number of ReadReq miss cycles
system.cpu.icache.ReadReq_accesses::.cpu.inst       642869                       # number of ReadReq accesses(hits+misses)
system.cpu.icache.ReadReq_accesses::total       642869                       # number of ReadReq accesses(hits+misses)
system.cpu.icache.ReadReq_miss_rate::.cpu.inst     0.004136                       # miss rate for ReadReq accesses
system.cpu.icache.ReadReq_miss_rate::total     0.004136                       # miss rate for ReadReq accesses
system.cpu.icache.ReadReq_avg_miss_latency::.cpu.inst 77060.549079                       # average ReadReq miss latency
system.cpu.icache.ReadReq_avg_miss_latency::total 77060.549079                       # average ReadReq miss latency
system.cpu.icache.ReadReq_mshr_misses::.cpu.inst         2659                       # number of ReadReq MSHR misses
system.cpu.icache.ReadReq_mshr_misses::total         2659                       # number of ReadReq MSHR misses
system.cpu.icache.ReadReq_mshr_miss_latency::.cpu.inst    202245000                       # number of ReadReq MSHR miss cycles
system.cpu.icache.ReadReq_mshr_miss_latency::total    202245000                       # number of ReadReq MSHR miss cycles
system.cpu.icache.ReadReq_mshr_miss_rate::.cpu.inst     0.004136                       # mshr miss rate for ReadReq accesses
system.cpu.icache.ReadReq_mshr_miss_rate::total     0.004136                       # mshr miss rate for ReadReq accesses
system.cpu.icache.ReadReq_avg_mshr_miss_latency::.cpu.inst 76060.549079                       # average ReadReq mshr miss latency
system.cpu.icache.ReadReq_avg_mshr_miss_latency::total 76060.549079                       # average ReadReq mshr miss latency
system.cpu.icache.power_state.pwrStateResidencyTicks::UNDEFINED   1465172500                       # Cumulative time (in ticks) in various power states
system.cpu.icache.tags.tagsinuse          1505.375761                       # Cycle average of tags in use
system.cpu.icache.tags.total_refs              642869                       # Total number of references to valid blocks.
system.cpu.icache.tags.sampled_refs              2659                       # Sample count of references to valid blocks.
system.cpu.icache.tags.avg_refs            241.770967                       # Average number of references to valid blocks.
system.cpu.icache.tags.warmup_cycle             87500                       # Cycle when the warmup percentage was hit.
system.cpu.icache.tags.occ_blocks::.cpu.inst  1505.375761                       # Average occupied blocks per requestor
system.cpu.icache.tags.occ_percent::.cpu.inst     0.367523                       # Average percentage of cache occupancy
system.cpu.icache.tags.occ_percent::total     0.367523                       # Average percentage of cache occupancy
system.cpu.icache.tags.occ_task_id_blocks::1024         2343                       # Occupied blocks per task id
system.cpu.icache.tags.age_task_id_blocks_1024::0           94                       # Occupied blocks per task id
system.cpu.icache.tags.age_task_id_blocks_1024::1          231                       # Occupied blocks per task id
system.cpu.icache.tags.age_task_id_blocks_1024::2         1097                       # Occupied blocks per task id
system.cpu.icache.tags.age_task_id_blocks_1024::3          921                       # Occupied blocks per task id
system.cpu.icache.tags.occ_task_id_percent::1024     0.572021                       # Percentage of cache occupancy per task id
system.cpu.icache.tags.tag_accesses           1288397                       # Number of tag accesses
system.cpu.icache.tags.data_accesses          1288397                       # Number of data accesses
system.cpu.icache.tags.power_state.pwrStateResidencyTicks::UNDEFINED   1465172500                       # Cumulative time (in ticks) in various power states
system.cpu.interrupts.clk_domain.clock           8000                       # Clock period in ticks
system.cpu.itb.rdAccesses                           0                       # TLB accesses on read requests
system.cpu.itb.wrAccesses                      642947                       # TLB accesses on write requests
system.cpu.itb.rdMisses                             0                       # TLB misses on read requests
system.cpu.itb.wrMisses                           262                       # TLB misses on write requests
system.cpu.itb.walker.power_state.pwrStateResidencyTicks::UNDEFINED   1465172500                       # Cumulative time (in ticks) in various power states
system.cpu.itb_walker_cache.blocked_cycles::no_mshrs            0                       # number of cycles access was blocked
system.cpu.itb_walker_cache.blocked_cycles::no_targets            0                       # number of cycles access was blocked
system.cpu.itb_walker_cache.blocked::no_mshrs            0                       # number of cycles access was blocked
system.cpu.itb_walker_cache.blocked::no_targets            0                       # number of cycles access was blocked
system.cpu.itb_walker_cache.avg_blocked_cycles::no_mshrs          nan                       # average number of cycles each access was blocked
system.cpu.itb_walker_cache.avg_blocked_cycles::no_targets          nan                       # average number of cycles each access was blocked
system.cpu.itb_walker_cache.replacements            0                       # number of replacements
system.cpu.itb_walker_cache.power_state.pwrStateResidencyTicks::UNDEFINED   1465172500                       # Cumulative time (in ticks) in various power states
system.cpu.itb_walker_cache.tags.tagsinuse            0                       # Cycle average of tags in use
system.cpu.itb_walker_cache.tags.total_refs            0                       # Total number of references to valid blocks.
system.cpu.itb_walker_cache.tags.sampled_refs            0                       # Sample count of references to valid blocks.
system.cpu.itb_walker_cache.tags.avg_refs          nan                       # Average number of references to valid blocks.
system.cpu.itb_walker_cache.tags.warmup_cycle            0                       # Cycle when the warmup percentage was hit.
system.cpu.itb_walker_cache.tags.tag_accesses            0                       # Number of tag accesses
system.cpu.itb_walker_cache.tags.data_accesses            0                       # Number of data accesses
system.cpu.itb_walker_cache.tags.power_state.pwrStateResidencyTicks::UNDEFINED   1465172500                       # Cumulative time (in ticks) in various power states
system.cpu.power_state.pwrStateResidencyTicks::ON   1465172500                       # Cumulative time (in ticks) in various power states
system.cpu.thread_0.numInsts                        0                       # Number of Instructions committed
system.cpu.thread_0.numOps                          0                       # Number of Ops committed
system.cpu.thread_0.numMemRefs                      0                       # Number of Memory References
system.cpu_clk_domain.clock                       500                       # Clock period in ticks
system.cpu_voltage_domain.voltage                   1                       # Voltage in Volts
system.l2.demand_hits::.cpu.inst                   12                       # number of demand (read+write) hits
system.l2.demand_hits::.cpu.data                   34                       # number of demand (read+write) hits
system.l2.demand_hits::total                       46                       # number of demand (read+write) hits
system.l2.overall_hits::.cpu.inst                  12                       # number of overall hits
system.l2.overall_hits::.cpu.data                  34                       # number of overall hits
system.l2.overall_hits::total                      46                       # number of overall hits
system.l2.demand_misses::.cpu.inst               2647                       # number of demand (read+write) misses
system.l2.demand_misses::.cpu.data               5246                       # number of demand (read+write) misses
system.l2.demand_misses::total                   7893                       # number of demand (read+write) misses
system.l2.overall_misses::.cpu.inst              2647                       # number of overall misses
system.l2.overall_misses::.cpu.data              5246                       # number of overall misses
system.l2.overall_misses::total                  7893                       # number of overall misses
system.l2.demand_miss_latency::.cpu.inst    198130500                       # number of demand (read+write) miss cycles
system.l2.demand_miss_latency::.cpu.data    396157500                       # number of demand (read+write) miss cycles
system.l2.demand_miss_latency::total        594288000                       # number of demand (read+write) miss cycles
system.l2.overall_miss_latency::.cpu.inst    198130500                       # number of overall miss cycles
system.l2.overall_miss_latency::.cpu.data    396157500                       # number of overall miss cycles
system.l2.overall_miss_latency::total       594288000                       # number of overall miss cycles
system.l2.demand_accesses::.cpu.inst             2659                       # number of demand (read+write) accesses
system.l2.demand_accesses::.cpu.data             5280                       # number of demand (read+write) accesses
system.l2.demand_accesses::total                 7939                       # number of demand (read+write) accesses
system.l2.overall_accesses::.cpu.inst            2659                       # number of overall (read+write) accesses
system.l2.overall_accesses::.cpu.data            5280                       # number of overall (read+write) accesses
system.l2.overall_accesses::total                7939                       # number of overall (read+write) accesses
system.l2.demand_miss_rate::.cpu.inst        0.995487                       # miss rate for demand accesses
system.l2.demand_miss_rate::.cpu.data        0.993561                       # miss rate for demand accesses
system.l2.demand_miss_rate::total            0.994206                       # miss rate for demand accesses
system.l2.overall_miss_rate::.cpu.inst       0.995487                       # miss rate for overall accesses
system.l2.overall_miss_rate::.cpu.data       0.993561                       # miss rate for overall accesses
system.l2.overall_miss_rate::total           0.994206                       # miss rate for overall accesses
system.l2.demand_avg_miss_latency::.cpu.inst 74850.963355                       # average overall miss latency
system.l2.demand_avg_miss_latency::.cpu.data 75516.107510                       # average overall miss latency
system.l2.demand_avg_miss_latency::total 75293.044470                       # average overall miss latency
system.l2.overall_avg_miss_latency::.cpu.inst 74850.963355                       # average overall miss latency
system.l2.overall_avg_miss_latency::.cpu.data 75516.107510                       # average overall miss latency
system.l2.overall_avg_miss_latency::total 75293.044470                       # average overall miss latency
system.l2.blocked_cycles::no_mshrs                  0                       # number of cycles access was blocked
system.l2.blocked_cycles::no_targets                0                       # number of cycles access was blocked
system.l2.blocked::no_mshrs                         0                       # number of cycles access was blocked
system.l2.blocked::no_targets                       0                       # number of cycles access was blocked
system.l2.avg_blocked_cycles::no_mshrs            nan                       # average number of cycles each access was blocked
system.l2.avg_blocked_cycles::no_targets          nan                       # average number of cycles each access was blocked
system.l2.writebacks::.writebacks                 124                       # number of writebacks
system.l2.writebacks::total                       124                       # number of writebacks
system.l2.demand_mshr_misses::.cpu.inst          2647                       # number of demand (read+write) MSHR misses
system.l2.demand_mshr_misses::.cpu.data          5246                       # number of demand (read+write) MSHR misses
system.l2.demand_mshr_misses::total              7893                       # number of demand (read+write) MSHR misses
system.l2.overall_mshr_misses::.cpu.inst         2647                       # number of overall MSHR misses
system.l2.overall_mshr_misses::.cpu.data         5246                       # number of overall MSHR misses
system.l2.overall_mshr_misses::total             7893                       # number of overall MSHR misses
system.l2.demand_mshr_miss_latency::.cpu.inst    171660500                       # number of demand (read+write) MSHR miss cycles
system.l2.demand_mshr_miss_latency::.cpu.data    343697500                       # number of demand (read+write) MSHR miss cycles
system.l2.demand_mshr_miss_latency::total    515358000                       # number of demand (read+write) MSHR miss cycles
system.l2.overall_mshr_miss_latency::.cpu.inst    171660500                       # number of overall MSHR miss cycles
system.l2.overall_mshr_miss_latency::.cpu.data    343697500                       # number of overall MSHR miss cycles
system.l2.overall_mshr_miss_latency::total    515358000                       # number of overall MSHR miss cycles
system.l2.demand_mshr_miss_rate::.cpu.inst     0.995487                       # mshr miss rate for demand accesses
system.l2.demand_mshr_miss_rate::.cpu.data     0.993561                       # mshr miss rate for demand accesses
system.l2.demand_mshr_miss_rate::total       0.994206                       # mshr miss rate for demand accesses
system.l2.overall_mshr_miss_rate::.cpu.inst     0.995487                       # mshr miss rate for overall accesses
system.l2.overall_mshr_miss_rate::.cpu.data     0.993561                       # mshr miss rate for overall accesses
system.l2.overall_mshr_miss_rate::total      0.994206                       # mshr miss rate for overall accesses
system.l2.demand_avg_mshr_miss_latency::.cpu.inst 64850.963355                       # average overall mshr miss latency
system.l2.demand_avg_mshr_miss_latency::.cpu.data 65516.107510                       # average overall mshr miss latency
system.l2.demand_avg_mshr_miss_latency::total 65293.044470                       # average overall mshr miss latency
system.l2.overall_avg_mshr_miss_latency::.cpu.inst 64850.963355                       # average overall mshr miss latency
system.l2.overall_avg_mshr_miss_latency::.cpu.data 65516.107510                       # average overall mshr miss latency
system.l2.overall_avg_mshr_miss_latency::total 65293.044470                       # average overall mshr miss latency
system.l2.replacements                           4496                       # number of replacements
system.l2.WritebackDirty_hits::.writebacks          530                       # number of WritebackDirty hits
system.l2.WritebackDirty_hits::total              530                       # number of WritebackDirty hits
system.l2.WritebackDirty_accesses::.writebacks          530                       # number of WritebackDirty accesses(hits+misses)
system.l2.WritebackDirty_accesses::total          530                       # number of WritebackDirty accesses(hits+misses)
system.l2.WritebackClean_hits::.writebacks          316                       # number of WritebackClean hits
system.l2.WritebackClean_hits::total              316                       # number of WritebackClean hits
system.l2.WritebackClean_accesses::.writebacks          316                       # number of WritebackClean accesses(hits+misses)
system.l2.WritebackClean_accesses::total          316                       # number of WritebackClean accesses(hits+misses)
system.l2.CleanEvict_mshr_misses::.writebacks          500                       # number of CleanEvict MSHR misses
system.l2.CleanEvict_mshr_misses::total           500                       # number of CleanEvict MSHR misses
system.l2.CleanEvict_mshr_miss_rate::.writebacks          inf                       # mshr miss rate for CleanEvict accesses
system.l2.CleanEvict_mshr_miss_rate::total          inf                       # mshr miss rate for CleanEvict accesses
system.l2.ReadExReq_hits::.cpu.data                13                       # number of ReadExReq hits
system.l2.ReadExReq_hits::total                    13                       # number of ReadExReq hits
system.l2.ReadExReq_misses::.cpu.data            1126                       # number of ReadExReq misses
system.l2.ReadExReq_misses::total                1126                       # number of ReadExReq misses
system.l2.ReadExReq_miss_latency::.cpu.data     83717500                       # number of ReadExReq miss cycles
system.l2.ReadExReq_miss_latency::total      83717500                       # number of ReadExReq miss cycles
system.l2.ReadExReq_accesses::.cpu.data          1139                       # number of ReadExReq accesses(hits+misses)
system.l2.ReadExReq_accesses::total              1139                       # number of ReadExReq accesses(hits+misses)
system.l2.ReadExReq_miss_rate::.cpu.data     0.988586                       # miss rate for ReadExReq accesses
system.l2.ReadExReq_miss_rate::total         0.988586                       # miss rate for ReadExReq accesses
system.l2.ReadExReq_avg_miss_latency::.cpu.data 74349.467140                       # average ReadExReq miss latency
system.l2.ReadExReq_avg_miss_latency::total 74349.467140                       # average ReadExReq miss latency
system.l2.ReadExReq_mshr_misses::.cpu.data         1126                       # number of ReadExReq MSHR misses
system.l2.ReadExReq_mshr_misses::total           1126                       # number of ReadExReq MSHR misses
system.l2.ReadExReq_mshr_miss_latency::.cpu.data     72457500                       # number of ReadExReq MSHR miss cycles
system.l2.ReadExReq_mshr_miss_latency::total     72457500                       # number of ReadExReq MSHR miss cycles
system.l2.ReadExReq_mshr_miss_rate::.cpu.data     0.988586                       # mshr miss rate for ReadExReq accesses
system.l2.ReadExReq_mshr_miss_rate::total     0.988586                       # mshr miss rate for ReadExReq accesses
system.l2.ReadExReq_avg_mshr_miss_latency::.cpu.data 64349.467140                       # average ReadExReq mshr miss latency
system.l2.ReadExReq_avg_mshr_miss_latency::total 64349.467140                       # average ReadExReq mshr miss latency
system.l2.ReadCleanReq_hits::.cpu.inst             12                       # number of ReadCleanReq hits
system.l2.ReadCleanReq_hits::total                 12                       # number of ReadCleanReq hits
system.l2.ReadCleanReq_misses::.cpu.inst         2647                       # number of ReadCleanReq misses
system.l2.ReadCleanReq_misses::total             2647                       # number of ReadCleanReq misses
system.l2.ReadCleanReq_miss_latency::.cpu.inst    198130500                       # number of ReadCleanReq miss cycles
system.l2.ReadCleanReq_miss_latency::total    198130500                       # number of ReadCleanReq miss cycles
system.l2.ReadCleanReq_accesses::.cpu.inst         2659                       # number of ReadCleanReq accesses(hits+misses)
system.l2.ReadCleanReq_accesses::total           2659                       # number of ReadCleanReq accesses(hits+misses)
system.l2.ReadCleanReq_miss_rate::.cpu.inst     0.995487                       # miss rate for ReadCleanReq accesses
system.l2.ReadCleanReq_miss_rate::total      0.995487                       # miss rate for ReadCleanReq accesses
system.l2.ReadCleanReq_avg_miss_latency::.cpu.inst 74850.963355                       # average ReadCleanReq miss latency
system.l2.ReadCleanReq_avg_miss_latency::total 74850.963355                       # average ReadCleanReq miss latency
system.l2.ReadCleanReq_mshr_misses::.cpu.inst         2647                       # number of ReadCleanReq MSHR misses
system.l2.ReadCleanReq_mshr_misses::total         2647                       # number of ReadCleanReq MSHR misses
system.l2.ReadCleanReq_mshr_miss_latency::.cpu.inst    171660500                       # number of ReadCleanReq MSHR miss cycles
system.l2.ReadCleanReq_mshr_miss_latency::total    171660500                       # number of ReadCleanReq MSHR miss cycles
system.l2.ReadCleanReq_mshr_miss_rate::.cpu.inst     0.995487                       # mshr miss rate for ReadCleanReq accesses
system.l2.ReadCleanReq_mshr_miss_rate::total     0.995487                       # mshr miss rate for ReadCleanReq accesses
system.l2.ReadCleanReq_avg_mshr_miss_latency::.cpu.inst 64850.963355                       # average ReadCleanReq mshr miss latency
system.l2.ReadCleanReq_avg_mshr_miss_latency::total 64850.963355                       # average ReadCleanReq mshr miss latency
system.l2.ReadSharedReq_hits::.cpu.data            21                       # number of ReadSharedReq hits
system.l2.ReadSharedReq_hits::total                21                       # number of ReadSharedReq hits
system.l2.ReadSharedReq_misses::.cpu.data         4120                       # number of ReadSharedReq misses
system.l2.ReadSharedReq_misses::total            4120                       # number of ReadSharedReq misses
system.l2.ReadSharedReq_miss_latency::.cpu.data    312440000                       # number of ReadSharedReq miss cycles
system.l2.ReadSharedReq_miss_latency::total    312440000                       # number of ReadSharedReq miss cycles
system.l2.ReadSharedReq_accesses::.cpu.data         4141                       # number of ReadSharedReq accesses(hits+misses)
system.l2.ReadSharedReq_accesses::total          4141                       # number of ReadSharedReq accesses(hits+misses)
system.l2.ReadSharedReq_miss_rate::.cpu.data     0.994929                       # miss rate for ReadSharedReq accesses
system.l2.ReadSharedReq_miss_rate::total     0.994929                       # miss rate for ReadSharedReq accesses
system.l2.ReadSharedReq_avg_miss_latency::.cpu.data 75834.951456                       # average ReadSharedReq miss latency
system.l2.ReadSharedReq_avg_miss_latency::total 75834.951456                       # average ReadSharedReq miss latency
system.l2.ReadSharedReq_mshr_misses::.cpu.data         4120                       # number of ReadSharedReq MSHR misses
system.l2.ReadSharedReq_mshr_misses::total         4120                       # number of ReadSharedReq MSHR misses
system.l2.ReadSharedReq_mshr_miss_latency::.cpu.data    271240000                       # number of ReadSharedReq MSHR miss cycles
system.l2.ReadSharedReq_mshr_miss_latency::total    271240000                       # number of ReadSharedReq MSHR miss cycles
system.l2.ReadSharedReq_mshr_miss_rate::.cpu.data     0.994929                       # mshr miss rate for ReadSharedReq accesses
system.l2.ReadSharedReq_mshr_miss_rate::total     0.994929                       # mshr miss rate for ReadSharedReq accesses
system.l2.ReadSharedReq_avg_mshr_miss_latency::.cpu.data 65834.951456                       # average ReadSharedReq mshr miss latency
system.l2.ReadSharedReq_avg_mshr_miss_latency::total 65834.951456                       # average ReadSharedReq mshr miss latency
system.l2.power_state.pwrStateResidencyTicks::UNDEFINED   1465172500                       # Cumulative time (in ticks) in various power states
system.l2.tags.tagsinuse                  3290.890691                       # Cycle average of tags in use
system.l2.tags.total_refs                        8939                       # Total number of references to valid blocks.
system.l2.tags.sampled_refs                      8533                       # Sample count of references to valid blocks.
system.l2.tags.avg_refs                      1.047580                       # Average number of references to valid blocks.
system.l2.tags.warmup_cycle                     77000                       # Cycle when the warmup percentage was hit.
system.l2.tags.occ_blocks::.writebacks     202.310976                       # Average occupied blocks per requestor
system.l2.tags.occ_blocks::.cpu.inst       800.266423                       # Average occupied blocks per requestor
system.l2.tags.occ_blocks::.cpu.data      2288.313292                       # Average occupied blocks per requestor
system.l2.tags.occ_percent::.writebacks      0.049392                       # Average percentage of cache occupancy
system.l2.tags.occ_percent::.cpu.inst        0.195378                       # Average percentage of cache occupancy
system.l2.tags.occ_percent::.cpu.data        0.558670                       # Average percentage of cache occupancy
system.l2.tags.occ_percent::total            0.803440                       # Average percentage of cache occupancy
system.l2.tags.occ_task_id_blocks::1024          4037                       # Occupied blocks per task id
system.l2.tags.age_task_id_blocks_1024::0          122                       # Occupied blocks per task id
system.l2.tags.age_task_id_blocks_1024::1          331                       # Occupied blocks per task id
system.l2.tags.age_task_id_blocks_1024::2         2715                       # Occupied blocks per task id
system.l2.tags.age_task_id_blocks_1024::3          869                       # Occupied blocks per task id
system.l2.tags.occ_task_id_percent::1024     0.985596                       # Percentage of cache occupancy per task id
system.l2.tags.tag_accesses                     27411                       # Number of tag accesses
system.l2.tags.data_accesses                    27411                       # Number of data accesses
system.l2.tags.power_state.pwrStateResidencyTicks::UNDEFINED   1465172500                       # Cumulative time (in ticks) in various power states
system.mem_ctrls.avgPriority_.writebacks::samples        95.00                       # Average QoS priority value for accepted requests
system.mem_ctrls.avgPriority_.cpu.inst::samples      2647.00                       # Average QoS priority value for accepted requests
system.mem_ctrls.avgPriority_.cpu.data::samples      5239.00                       # Average QoS priority value for accepted requests
system.mem_ctrls.priorityMinLatency      0.000000018750                       # per QoS priority minimum request to response latency (s)
system.mem_ctrls.priorityMaxLatency      0.001181618500                       # per QoS priority maximum request to response latency (s)
system.mem_ctrls.numReadWriteTurnArounds            4                       # Number of turnarounds from READ to WRITE
system.mem_ctrls.numWriteReadTurnArounds            4                       # Number of turnarounds from WRITE to READ
system.mem_ctrls.numStayReadState               16268                       # Number of times bus staying in READ state
system.mem_ctrls.numStayWriteState                 60                       # Number of times bus staying in WRITE state
system.mem_ctrls.readReqs                        7893                       # Number of read requests accepted
system.mem_ctrls.writeReqs                        124                       # Number of write requests accepted
system.mem_ctrls.readBursts                      7893                       # Number of controller read bursts, including those serviced by the write queue
system.mem_ctrls.writeBursts                      124                       # Number of controller write bursts, including those merged in the write queue
system.mem_ctrls.servicedByWrQ                      7                       # Number of controller read bursts serviced by the write queue
system.mem_ctrls.mergedWrBursts                    29                       # Number of controller write bursts merged with an existing one
system.mem_ctrls.neitherReadNorWriteReqs            0                       # Number of requests that are neither read nor write
system.mem_ctrls.avgRdQLen                       1.00                       # Average read queue length when enqueuing
system.mem_ctrls.avgWrQLen                      13.39                       # Average write queue length when enqueuing
system.mem_ctrls.numRdRetry                         0                       # Number of times read queue was full causing retry
system.mem_ctrls.numWrRetry                         0                       # Number of times write queue was full causing retry
system.mem_ctrls.readPktSize::0                     0                       # Read request sizes (log2)
system.mem_ctrls.readPktSize::1                     0                       # Read request sizes (log2)
system.mem_ctrls.readPktSize::2                     0                       # Read request sizes (log2)
system.mem_ctrls.readPktSize::3                     0                       # Read request sizes (log2)
system.mem_ctrls.readPktSize::4                     0                       # Read request sizes (log2)
system.mem_ctrls.readPktSize::5                  7893                       # Read request sizes (log2)
system.mem_ctrls.writePktSize::0                    0                       # Write request sizes (log2)
system.mem_ctrls.writePktSize::1                    0                       # Write request sizes (log2)
system.mem_ctrls.writePktSize::2                    0                       # Write request sizes (log2)
system.mem_ctrls.writePktSize::3                    0                       # Write request sizes (log2)
system.mem_ctrls.writePktSize::4                    0                       # Write request sizes (log2)
system.mem_ctrls.writePktSize::5                  124                       # Write request sizes (log2)
system.mem_ctrls.rdQLenPdf::0                    7884                       # What read queue length does an incoming req see
system.mem_ctrls.rdQLenPdf::1                       2                       # What read queue length does an incoming req see
system.mem_ctrls.rdQLenPdf::2                       0                       # What read queue length does an incoming req see
system.mem_ctrls.rdQLenPdf::3                       0                       # What read queue length does an incoming req see
system.mem_ctrls.rdQLenPdf::4                       0                       # What read queue length does an incoming req see
system.mem_ctrls.rdQLenPdf::5                       0                       # What read queue length does an incoming req see
system.mem_ctrls.rdQLenPdf::6                       0                       # What read queue length does an incoming req see
system.mem_ctrls.rdQLenPdf::7                       0                       # What read queue length does an incoming req see
system.mem_ctrls.rdQLenPdf::8                       0                       # What read queue length does an incoming req see
system.mem_ctrls.rdQLenPdf::9                       0                       # What read queue length does an incoming req see
system.mem_ctrls.rdQLenPdf::10                      0                       # What read queue length does an incoming req see
system.mem_ctrls.rdQLenPdf::11                      0                       # What read queue length does an incoming req see
system.mem_ctrls.rdQLenPdf::12                      0                       # What read queue length does an incoming req see
system.mem_ctrls.rdQLenPdf::13                      0                       # What read queue length does an incoming req see
system.mem_ctrls.rdQLenPdf::14                      0                       # What read queue length does an incoming req see
system.mem_ctrls.rdQLenPdf::15                      0                       # What read queue length does an incoming req see
system.mem_ctrls.rdQLenPdf::16                      0                       # What read queue length does an incoming req see
system.mem_ctrls.rdQLenPdf::17                      0                       # What read queue length does an incoming req see
system.mem_ctrls.rdQLenPdf::18                      0                       # What read queue length does an incoming req see
system.mem_ctrls.rdQLenPdf::19                      0                       # What read queue length does an incoming req see
system.mem_ctrls.rdQLenPdf::20                      0                       # What read queue length does an incoming req see
system.mem_ctrls.rdQLenPdf::21                      0                       # What read queue length does an incoming req see
system.mem_ctrls.rdQLenPdf::22                      0                       # What read queue length does an incoming req see
system.mem_ctrls.rdQLenPdf::23                      0                       # What read queue length does an incoming req see
system.mem_ctrls.rdQLenPdf::24                      0                       # What read queue length does an incoming req see
system.mem_ctrls.rdQLenPdf::25                      0                       # What read queue length does an incoming req see
system.mem_ctrls.rdQLenPdf::26                      0                       # What read queue length does an incoming req see
system.mem_ctrls.rdQLenPdf::27                      0                       # What read queue length does an incoming req see
system.mem_ctrls.rdQLenPdf::28                      0                       # What read queue length does an incoming req see
system.mem_ctrls.rdQLenPdf::29                      0                       # What read queue length does an incoming req see
system.mem_ctrls.rdQLenPdf::30                      0                       # What read queue length does an incoming req see
system.mem_ctrls.rdQLenPdf::31                      0                       # What read queue length does an incoming req see
system.mem_ctrls.wrQLenPdf::0                       1                       # What write queue length does an incoming req see
system.mem_ctrls.wrQLenPdf::1                       1                       # What write queue length does an incoming req see
system.mem_ctrls.wrQLenPdf::2                       1                       # What write queue length does an incoming req see
system.mem_ctrls.wrQLenPdf::3                       1                       # What write queue length does an incoming req see
system.mem_ctrls.wrQLenPdf::4                       1                       # What write queue length does an incoming req see
system.mem_ctrls.wrQLenPdf::5                       1                       # What write queue length does an incoming req see
system.mem_ctrls.wrQLenPdf::6                       1                       # What write queue length does an incoming req see
system.mem_ctrls.wrQLenPdf::7                       1                       # What write queue length does an incoming req see
system.mem_ctrls.wrQLenPdf::8                       1                       # What write queue length does an incoming req see
system.mem_ctrls.wrQLenPdf::9                       1                       # What write queue length does an incoming req see
system.mem_ctrls.wrQLenPdf::10                      1                       # What write queue length does an incoming req see
system.mem_ctrls.wrQLenPdf::11                      1                       # What write queue length does an incoming req see
system.mem_ctrls.wrQLenPdf::12                      1                       # What write queue length does an incoming req see
system.mem_ctrls.wrQLenPdf::13                      1                       # What write queue length does an incoming req see
system.mem_ctrls.wrQLenPdf::14                      1                       # What write queue length does an incoming req see
system.mem_ctrls.wrQLenPdf::15                      1                       # What write queue length does an incoming req see
system.mem_ctrls.wrQLenPdf::16                      1                       # What write queue length does an incoming req see
system.mem_ctrls.wrQLenPdf::17                      5                       # What write queue length does an incoming req see
system.mem_ctrls.wrQLenPdf::18                      5                       # What write queue length does an incoming req see
system.mem_ctrls.wrQLenPdf::19                      5                       # What write queue length does an incoming req see
system.mem_ctrls.wrQLenPdf::20                      5                       # What write queue length does an incoming req see
system.mem_ctrls.wrQLenPdf::21                      5                       # What write queue length does an incoming req see
system.mem_ctrls.wrQLenPdf::22                      5                       # What write queue length does an incoming req see
system.mem_ctrls.wrQLenPdf::23                      5                       # What write queue length does an incoming req see
system.mem_ctrls.wrQLenPdf::24                      5                       # What write queue length does an incoming req see
system.mem_ctrls.wrQLenPdf::25                      5                       # What write queue length does an incoming req see
system.mem_ctrls.wrQLenPdf::26                      5                       # What write queue length does an incoming req see
system.mem_ctrls.wrQLenPdf::27                      5                       # What write queue length does an incoming req see
system.mem_ctrls.wrQLenPdf::28                      5                       # What write queue length does an incoming req see
system.mem_ctrls.wrQLenPdf::29                      5                       # What write queue length does an incoming req see
system.mem_ctrls.wrQLenPdf::30                      5                       # What write queue length does an incoming req see
system.mem_ctrls.wrQLenPdf::31                      4                       # What write queue length does an incoming req see
system.mem_ctrls.wrQLenPdf::32                      4                       # What write queue length does an incoming req see
system.mem_ctrls.wrQLenPdf::33                      0                       # What write queue length does an incoming req see
system.mem_ctrls.wrQLenPdf::34                      0                       # What write queue length does an incoming req see
system.mem_ctrls.wrQLenPdf::35                      0                       # What write queue length does an incoming req see
system.mem_ctrls.wrQLenPdf::36                      0                       # What write queue length does an incoming req see
system.mem_ctrls.wrQLenPdf::37                      0                       # What write queue length does an incoming req see
system.mem_ctrls.wrQLenPdf::38                      0                       # What write queue length does an incoming req see
system.mem_ctrls.wrQLenPdf::39                      0                       # What write queue length does an incoming req see
system.mem_ctrls.wrQLenPdf::40                      0                       # What write queue length does an incoming req see
system.mem_ctrls.wrQLenPdf::41                      0                       # What write queue length does an incoming req see
system.mem_ctrls.wrQLenPdf::42                      0                       # What write queue length does an incoming req see
system.mem_ctrls.wrQLenPdf::43                      0                       # What write queue length does an incoming req see
system.mem_ctrls.wrQLenPdf::44                      0                       # What write queue length does an incoming req see
system.mem_ctrls.wrQLenPdf::45                      0                       # What write queue length does an incoming req see
system.mem_ctrls.wrQLenPdf::46                      0                       # What write queue length does an incoming req see
system.mem_ctrls.wrQLenPdf::47                      0                       # What write queue length does an incoming req see
system.mem_ctrls.wrQLenPdf::48                      0                       # What write queue length does an incoming req see
system.mem_ctrls.wrQLenPdf::49                      0                       # What write queue length does an incoming req see
system.mem_ctrls.wrQLenPdf::50                      0                       # What write queue length does an incoming req see
system.mem_ctrls.wrQLenPdf::51                      0                       # What write queue length does an incoming req see
system.mem_ctrls.wrQLenPdf::52                      0                       # What write queue length does an incoming req see
system.mem_ctrls.wrQLenPdf::53                      0                       # What write queue length does an incoming req see
system.mem_ctrls.wrQLenPdf::54                      0                       # What write queue length does an incoming req see
system.mem_ctrls.wrQLenPdf::55                      0                       # What write queue length does an incoming req see
system.mem_ctrls.wrQLenPdf::56                      0                       # What write queue length does an incoming req see
system.mem_ctrls.wrQLenPdf::57                      0                       # What write queue length does an incoming req see
system.mem_ctrls.wrQLenPdf::58                      0                       # What write queue length does an incoming req see
system.mem_ctrls.wrQLenPdf::59                      0                       # What write queue length does an incoming req see
system.mem_ctrls.wrQLenPdf::60                      0                       # What write queue length does an incoming req see
system.mem_ctrls.wrQLenPdf::61                      0                       # What write queue length does an incoming req see
system.mem_ctrls.wrQLenPdf::62                      0                       # What write queue length does an incoming req see
system.mem_ctrls.wrQLenPdf::63                      0                       # What write queue length does an incoming req see
system.mem_ctrls.rdPerTurnAround::samples            4                       # Reads before turning the bus around for writes
system.mem_ctrls.rdPerTurnAround::mean           1943                       # Reads before turning the bus around for writes
system.mem_ctrls.rdPerTurnAround::gmean    614.212719                       # Reads before turning the bus around for writes
system.mem_ctrls.rdPerTurnAround::stdev   3306.096893                       # Reads before turning the bus around for writes
system.mem_ctrls.rdPerTurnAround::0-255             1     25.00%     25.00% # Reads before turning the bus around for writes
system.mem_ctrls.rdPerTurnAround::256-511            2     50.00%     75.00% # Reads before turning the bus around for writes
system.mem_ctrls.rdPerTurnAround::6656-6911            1     25.00%    100.00% # Reads before turning the bus around for writes
system.mem_ctrls.rdPerTurnAround::total             4                       # Reads before turning the bus around for writes
system.mem_ctrls.wrPerTurnAround::samples            4                       # Writes before turning the bus around for reads
system.mem_ctrls.wrPerTurnAround::mean             16                       # Writes before turning the bus around for reads
system.mem_ctrls.wrPerTurnAround::gmean     16.000000                       # Writes before turning the bus around for reads
system.mem_ctrls.wrPerTurnAround::16                4    100.00%    100.00% # Writes before turning the bus around for reads
system.mem_ctrls.wrPerTurnAround::total             4                       # Writes before turning the bus around for reads
system.mem_ctrls.bytesReadWrQ                     448                       # Total number of bytes read from write queue
system.mem_ctrls.bytesReadSys                  252576                       # Total read bytes from the system interface side
system.mem_ctrls.bytesWrittenSys                 3968                       # Total written bytes from the system interface side
system.mem_ctrls.avgRdBWSys                    172.39                       # Average system read bandwidth in MiByte/s
system.mem_ctrls.avgWrBWSys                      2.71                       # Average system write bandwidth in MiByte/s
system.mem_ctrls.totGap                    1465157500                       # Total gap between requests
system.mem_ctrls.avgGap                     182756.33                       # Average gap between requests
system.mem_ctrls.requestorReadBytes::.cpu.inst        84704                       # Per-requestor bytes read from memory
system.mem_ctrls.requestorReadBytes::.cpu.data       167648                       # Per-requestor bytes read from memory
system.mem_ctrls.requestorWriteBytes::.writebacks         2048                       # Per-requestor bytes write to memory
system.mem_ctrls.requestorReadRate::.cpu.inst 57811622.863519482315                       # Per-requestor bytes read from memory rate (Bytes/sec)
system.mem_ctrls.requestorReadRate::.cpu.data 114422021.980347022414                       # Per-requestor bytes read from memory rate (Bytes/sec)
system.mem_ctrls.requestorWriteRate::.writebacks 1397787.632514260244                       # Per-requestor bytes write to memory rate (Bytes/sec)
system.mem_ctrls.requestorReadAccesses::.cpu.inst         2647                       # Per-requestor read serviced memory accesses
system.mem_ctrls.requestorReadAccesses::.cpu.data         5246                       # Per-requestor read serviced memory accesses
[...]
system.mem_ctrls.dram.bw_total::.cpu.data    114574905                       # Total bandwidth to/from this memory (bytes/s)
system.mem_ctrls.dram.bw_total::total       175094741                       # Total bandwidth to/from this memory (bytes/s)
system.mem_ctrls.dram.readBursts                 7886                       # Number of DRAM read bursts
system.mem_ctrls.dram.writeBursts                  64                       # Number of DRAM write bursts
system.mem_ctrls.dram.perBankRdBursts::0          652                       # Per bank write bursts
system.mem_ctrls.dram.perBankRdBursts::1          415                       # Per bank write bursts
system.mem_ctrls.dram.perBankRdBursts::2          438                       # Per bank write bursts
system.mem_ctrls.dram.perBankRdBursts::3          521                       # Per bank write bursts
system.mem_ctrls.dram.perBankRdBursts::4          541                       # Per bank write bursts
system.mem_ctrls.dram.perBankRdBursts::5          335                       # Per bank write bursts
system.mem_ctrls.dram.perBankRdBursts::6          496                       # Per bank write bursts
system.mem_ctrls.dram.perBankRdBursts::7          402                       # Per bank write bursts
system.mem_ctrls.dram.perBankRdBursts::8          316                       # Per bank write bursts
system.mem_ctrls.dram.perBankRdBursts::9          709                       # Per bank write bursts
system.mem_ctrls.dram.perBankRdBursts::10          865                       # Per bank write bursts
system.mem_ctrls.dram.perBankRdBursts::11          475                       # Per bank write bursts
system.mem_ctrls.dram.perBankRdBursts::12          491                       # Per bank write bursts
system.mem_ctrls.dram.perBankRdBursts::13          451                       # Per bank write bursts
system.mem_ctrls.dram.perBankRdBursts::14          331                       # Per bank write bursts
system.mem_ctrls.dram.perBankRdBursts::15          448                       # Per bank write bursts
system.mem_ctrls.dram.perBankWrBursts::0            0                       # Per bank write bursts
system.mem_ctrls.dram.perBankWrBursts::1            0                       # Per bank write bursts
system.mem_ctrls.dram.perBankWrBursts::2            0                       # Per bank write bursts
system.mem_ctrls.dram.perBankWrBursts::3            0                       # Per bank write bursts
system.mem_ctrls.dram.perBankWrBursts::4            0                       # Per bank write bursts
system.mem_ctrls.dram.perBankWrBursts::5            0                       # Per bank write bursts
system.mem_ctrls.dram.perBankWrBursts::6            0                       # Per bank write bursts
system.mem_ctrls.dram.perBankWrBursts::7            0                       # Per bank write bursts
system.mem_ctrls.dram.perBankWrBursts::8           15                       # Per bank write bursts
system.mem_ctrls.dram.perBankWrBursts::9           22                       # Per bank write bursts
system.mem_ctrls.dram.perBankWrBursts::10           11                       # Per bank write bursts
system.mem_ctrls.dram.perBankWrBursts::11            1                       # Per bank write bursts
system.mem_ctrls.dram.perBankWrBursts::12            0                       # Per bank write bursts
system.mem_ctrls.dram.perBankWrBursts::13            1                       # Per bank write bursts
system.mem_ctrls.dram.perBankWrBursts::14            0                       # Per bank write bursts
system.mem_ctrls.dram.perBankWrBursts::15           14                       # Per bank write bursts
system.mem_ctrls.dram.totQLat                45517750                       # Total ticks spent queuing
system.mem_ctrls.dram.totBusLat              39430000                       # Total ticks spent in databus transfers
system.mem_ctrls.dram.totMemAccLat          193380250                       # Total ticks spent from burst creation until serviced by the DRAM
system.mem_ctrls.dram.avgQLat                 5771.97                       # Average queueing delay per DRAM burst
system.mem_ctrls.dram.avgBusLat               5000.00                       # Average bus latency per DRAM burst
system.mem_ctrls.dram.avgMemAccLat           24521.97                       # Average memory access latency per DRAM burst
system.mem_ctrls.dram.readRowHits                6561                       # Number of row buffer hits during reads
system.mem_ctrls.dram.writeRowHits                 51                       # Number of row buffer hits during writes
system.mem_ctrls.dram.readRowHitRate            83.20                       # Row buffer hit rate for reads
system.mem_ctrls.dram.writeRowHitRate           79.69                       # Row buffer hit rate for writes
system.mem_ctrls.dram.bytesPerActivate::samples         1333                       # Bytes accessed per row activation
system.mem_ctrls.dram.bytesPerActivate::mean   381.119280                       # Bytes accessed per row activation
system.mem_ctrls.dram.bytesPerActivate::gmean   229.711445                       # Bytes accessed per row activation
system.mem_ctrls.dram.bytesPerActivate::stdev   362.197043                       # Bytes accessed per row activation
system.mem_ctrls.dram.bytesPerActivate::0-127          371     27.83%     27.83% # Bytes accessed per row activation
system.mem_ctrls.dram.bytesPerActivate::128-255          321     24.08%     51.91% # Bytes accessed per row activation
system.mem_ctrls.dram.bytesPerActivate::256-383          153     11.48%     63.39% # Bytes accessed per row activation
system.mem_ctrls.dram.bytesPerActivate::384-511           95      7.13%     70.52% # Bytes accessed per row activation
system.mem_ctrls.dram.bytesPerActivate::512-639           62      4.65%     75.17% # Bytes accessed per row activation
system.mem_ctrls.dram.bytesPerActivate::640-767           30      2.25%     77.42% # Bytes accessed per row activation
system.mem_ctrls.dram.bytesPerActivate::768-895           28      2.10%     79.52% # Bytes accessed per row activation
system.mem_ctrls.dram.bytesPerActivate::896-1023           31      2.33%     81.85% # Bytes accessed per row activation
system.mem_ctrls.dram.bytesPerActivate::1024-1151          242     18.15%    100.00% # Bytes accessed per row activation
system.mem_ctrls.dram.bytesPerActivate::total         1333                       # Bytes accessed per row activation
system.mem_ctrls.dram.bytesRead                504704                       # Total number of bytes read from DRAM
system.mem_ctrls.dram.bytesWritten               4096                       # Total number of bytes written to DRAM
system.mem_ctrls.dram.avgRdBW              344.467290                       # Average DRAM read bandwidth in MiBytes/s
system.mem_ctrls.dram.avgWrBW                2.795575                       # Average DRAM write bandwidth in MiBytes/s
system.mem_ctrls.dram.peakBW                 12800.00                       # Theoretical peak bandwidth in MiByte/s
system.mem_ctrls.dram.busUtil                    2.71                       # Data bus utilization in percentage
system.mem_ctrls.dram.busUtilRead                2.69                       # Data bus utilization in percentage for reads
system.mem_ctrls.dram.busUtilWrite               0.02                       # Data bus utilization in percentage for writes
system.mem_ctrls.dram.pageHitRate               83.17                       # Row buffer hit rate, read and write combined
system.mem_ctrls.dram.power_state.pwrStateResidencyTicks::UNDEFINED   1465172500                       # Cumulative time (in ticks) in various power states
system.mem_ctrls.dram.rank0.actEnergy         5076540                       # Energy for activate commands per rank (pJ)
system.mem_ctrls.dram.rank0.preEnergy         2686860                       # Energy for precharge commands per rank (pJ)
system.mem_ctrls.dram.rank0.readEnergy       27132000                       # Energy for read commands per rank (pJ)
system.mem_ctrls.dram.rank0.writeEnergy             0                       # Energy for write commands per rank (pJ)
system.mem_ctrls.dram.rank0.refreshEnergy 115552320.000000                       # Energy for refresh commands per rank (pJ)
system.mem_ctrls.dram.rank0.actBackEnergy    398290920                       # Energy for active background per rank (pJ)
system.mem_ctrls.dram.rank0.preBackEnergy    227223360                       # Energy for precharge background per rank (pJ)
system.mem_ctrls.dram.rank0.actPowerDownEnergy            0                       # Energy for active power-down per rank (pJ)
system.mem_ctrls.dram.rank0.prePowerDownEnergy            0                       # Energy for precharge power-down per rank (pJ)
system.mem_ctrls.dram.rank0.selfRefreshEnergy            0                       # Energy for self refresh per rank (pJ)
system.mem_ctrls.dram.rank0.totalEnergy     775962000                       # Total energy per rank (pJ)
system.mem_ctrls.dram.rank0.averagePower   529.604535                       # Core power per rank (mW)
system.mem_ctrls.dram.rank0.totalIdleTime            0                       # Total Idle time Per DRAM Rank
system.mem_ctrls.dram.rank0.pwrStateTime::IDLE    587169500                       # Time in different power states
system.mem_ctrls.dram.rank0.pwrStateTime::REF     48880000                       # Time in different power states
system.mem_ctrls.dram.rank0.pwrStateTime::SREF            0                       # Time in different power states
system.mem_ctrls.dram.rank0.pwrStateTime::PRE_PDN            0                       # Time in different power states
system.mem_ctrls.dram.rank0.pwrStateTime::ACT    829123000                       # Time in different power states
system.mem_ctrls.dram.rank0.pwrStateTime::ACT_PDN            0                       # Time in different power states
system.mem_ctrls.dram.rank1.actEnergy         4476780                       # Energy for activate commands per rank (pJ)
system.mem_ctrls.dram.rank1.preEnergy         2371875                       # Energy for precharge commands per rank (pJ)
system.mem_ctrls.dram.rank1.readEnergy       29174040                       # Energy for read commands per rank (pJ)
system.mem_ctrls.dram.rank1.writeEnergy        334080                       # Energy for write commands per rank (pJ)
system.mem_ctrls.dram.rank1.refreshEnergy 115552320.000000                       # Energy for refresh commands per rank (pJ)
system.mem_ctrls.dram.rank1.actBackEnergy    395466570                       # Energy for active background per rank (pJ)
system.mem_ctrls.dram.rank1.preBackEnergy    229601760                       # Energy for precharge background per rank (pJ)
system.mem_ctrls.dram.rank1.actPowerDownEnergy            0                       # Energy for active power-down per rank (pJ)
system.mem_ctrls.dram.rank1.prePowerDownEnergy            0                       # Energy for precharge power-down per rank (pJ)
system.mem_ctrls.dram.rank1.selfRefreshEnergy            0                       # Energy for self refresh per rank (pJ)
system.mem_ctrls.dram.rank1.totalEnergy     776977425                       # Total energy per rank (pJ)
system.mem_ctrls.dram.rank1.averagePower   530.297576                       # Core power per rank (mW)
system.mem_ctrls.dram.rank1.totalIdleTime            0                       # Total Idle time Per DRAM Rank
system.mem_ctrls.dram.rank1.pwrStateTime::IDLE    592838750                       # Time in different power states
system.mem_ctrls.dram.rank1.pwrStateTime::REF     48880000                       # Time in different power states
system.mem_ctrls.dram.rank1.pwrStateTime::SREF            0                       # Time in different power states
system.mem_ctrls.dram.rank1.pwrStateTime::PRE_PDN            0                       # Time in different power states
system.mem_ctrls.dram.rank1.pwrStateTime::ACT    823453750                       # Time in different power states
system.mem_ctrls.dram.rank1.pwrStateTime::ACT_PDN            0                       # Time in different power states
system.mem_ctrls.power_state.pwrStateResidencyTicks::UNDEFINED   1465172500                       # Cumulative time (in ticks) in various power states
system.membus.trans_dist::ReadResp               6767                       # Transaction distribution
system.membus.trans_dist::WritebackDirty          124                       # Transaction distribution
system.membus.trans_dist::CleanEvict              601                       # Transaction distribution
system.membus.trans_dist::ReadExReq              1126                       # Transaction distribution
system.membus.trans_dist::ReadExResp             1126                       # Transaction distribution
system.membus.trans_dist::ReadSharedReq          6767                       # Transaction distribution
system.membus.pkt_count_system.l2.mem_side_port::system.mem_ctrls.port        16511                       # Packet count per connected requestor and responder (bytes)
system.membus.pkt_count_system.l2.mem_side_port::total        16511                       # Packet count per connected requestor and responder (bytes)
system.membus.pkt_count::total                  16511                       # Packet count per connected requestor and responder (bytes)
system.membus.pkt_size_system.l2.mem_side_port::system.mem_ctrls.port       256544                       # Cumulative packet size per connected requestor and responder (bytes)
system.membus.pkt_size_system.l2.mem_side_port::total       256544                       # Cumulative packet size per connected requestor and responder (bytes)
system.membus.pkt_size::total                  256544                       # Cumulative packet size per connected requestor and responder (bytes)
system.membus.snoops                                0                       # Total snoops (count)
system.membus.snoopTraffic                          0                       # Total snoop traffic (bytes)
system.membus.snoop_fanout::samples              7893                       # Request fanout histogram
system.membus.snoop_fanout::mean                    0                       # Request fanout histogram
system.membus.snoop_fanout::stdev                   0                       # Request fanout histogram
system.membus.snoop_fanout::underflows              0      0.00%      0.00% # Request fanout histogram
system.membus.snoop_fanout::0                    7893    100.00%    100.00% # Request fanout histogram
system.membus.snoop_fanout::1                       0      0.00%    100.00% # Request fanout histogram
system.membus.snoop_fanout::overflows               0      0.00%    100.00% # Request fanout histogram
system.membus.snoop_fanout::min_value               0                       # Request fanout histogram
system.membus.snoop_fanout::max_value               0                       # Request fanout histogram
system.membus.snoop_fanout::total                7893                       # Request fanout histogram
system.membus.power_state.pwrStateResidencyTicks::UNDEFINED   1465172500                       # Cumulative time (in ticks) in various power states
system.membus.reqLayer2.occupancy             8883500                       # Layer occupancy (ticks)
system.membus.reqLayer2.utilization               0.6                       # Layer utilization (%)
system.membus.respLayer1.occupancy           26034750                       # Layer occupancy (ticks)
system.membus.respLayer1.utilization              1.8                       # Layer utilization (%)
system.tol2bus.trans_dist::ReadResp              6800                       # Transaction distribution
system.tol2bus.trans_dist::WritebackDirty          654                       # Transaction distribution
system.tol2bus.trans_dist::WritebackClean          316                       # Transaction distribution
system.tol2bus.trans_dist::CleanEvict            5026                       # Transaction distribution
system.tol2bus.trans_dist::ReadExReq             1139                       # Transaction distribution
system.tol2bus.trans_dist::ReadExResp            1139                       # Transaction distribution
system.tol2bus.trans_dist::ReadCleanReq          2659                       # Transaction distribution
system.tol2bus.trans_dist::ReadSharedReq         4141                       # Transaction distribution
system.tol2bus.pkt_count_system.cpu.icache.mem_side_port::system.l2.cpu_side_port         5634                       # Packet count per connected requestor and responder (bytes)
system.tol2bus.pkt_count_system.cpu.dcache.mem_side_port::system.l2.cpu_side_port        11744                       # Packet count per connected requestor and responder (bytes)
system.tol2bus.pkt_count::total                 17378                       # Packet count per connected requestor and responder (bytes)
system.tol2bus.pkt_size_system.cpu.icache.mem_side_port::system.l2.cpu_side_port        95200                       # Cumulative packet size per connected requestor and responder (bytes)
system.tol2bus.pkt_size_system.cpu.dcache.mem_side_port::system.l2.cpu_side_port       185920                       # Cumulative packet size per connected requestor and responder (bytes)
system.tol2bus.pkt_size::total                 281120                       # Cumulative packet size per connected requestor and responder (bytes)
system.tol2bus.snoops                            4496                       # Total snoops (count)
system.tol2bus.snoopTraffic                      3968                       # Total snoop traffic (bytes)
system.tol2bus.snoop_fanout::samples            12435                       # Request fanout histogram
system.tol2bus.snoop_fanout::mean            0.343466                       # Request fanout histogram
system.tol2bus.snoop_fanout::stdev           0.474884                       # Request fanout histogram
system.tol2bus.snoop_fanout::underflows             0      0.00%      0.00% # Request fanout histogram
system.tol2bus.snoop_fanout::0                   8164     65.65%     65.65% # Request fanout histogram
system.tol2bus.snoop_fanout::1                   4271     34.35%    100.00% # Request fanout histogram
system.tol2bus.snoop_fanout::2                      0      0.00%    100.00% # Request fanout histogram
system.tol2bus.snoop_fanout::3                      0      0.00%    100.00% # Request fanout histogram
system.tol2bus.snoop_fanout::4                      0      0.00%    100.00% # Request fanout histogram
system.tol2bus.snoop_fanout::overflows              0      0.00%    100.00% # Request fanout histogram
system.tol2bus.snoop_fanout::min_value              0                       # Request fanout histogram
system.tol2bus.snoop_fanout::max_value              1                       # Request fanout histogram
system.tol2bus.snoop_fanout::total              12435                       # Request fanout histogram
system.tol2bus.power_state.pwrStateResidencyTicks::UNDEFINED   1465172500                       # Cumulative time (in ticks) in various power states
system.tol2bus.reqLayer0.occupancy            5142500                       # Layer occupancy (ticks)
system.tol2bus.reqLayer0.utilization              0.4                       # Layer utilization (%)
system.tol2bus.respLayer0.occupancy           2659000                       # Layer occupancy (ticks)
system.tol2bus.respLayer0.utilization             0.2                       # Layer utilization (%)
system.tol2bus.respLayer1.occupancy           5280000                       # Layer occupancy (ticks)
system.tol2bus.respLayer1.utilization             0.4                       # Layer utilization (%)
system.voltage_domain.voltage                       1                       # Voltage in Volts

---------- End Simulation Statistics   ----------
