
---------- Begin Simulation Statistics ----------
final_tick                                   64981500                       # Number of ticks from beginning of simulation (restored from checkpoints and never reset)
host_inst_rate                                 193208                       # Simulator instruction rate (inst/s)
host_mem_usage                                 656200                       # Number of bytes of host memory used
host_op_rate                                   373783                       # Simulator op (including micro ops) rate (op/s)
host_seconds                                     0.06                       # Real time elapsed on the host
host_tick_rate                             1168170641                       # Simulator tick rate (ticks/s)
sim_freq                                 1000000000000                       # Frequency of simulated ticks
sim_insts                                       10724                       # Number of instructions simulated
sim_ops                                         20782                       # Number of ops (including micro ops) simulated
sim_seconds                                  0.000065                       # Number of seconds simulated
sim_ticks                                    64981500                       # Number of ticks simulated
system.cpu.Branches                              2194                       # Number of branches fetched
system.cpu.committedInsts                       10724                       # Number of instructions committed
system.cpu.committedOps                         20782                       # Number of ops (including micro ops) committed
system.cpu.idle_fraction                     0.000000                       # Percentage of idle cycles
system.cpu.not_idle_fraction                 1.000000                       # Percentage of non-idle cycles
system.cpu.numCycles                           129963                       # number of cpu cycles simulated
system.cpu.numWorkItemsCompleted                    0                       # number of work items this cpu completed
system.cpu.numWorkItemsStarted                      0                       # number of work items this cpu started
system.cpu.num_busy_cycles               129962.998000                       # Number of busy cycles
system.cpu.num_cc_register_reads                10907                       # number of times the CC registers were read
system.cpu.num_cc_register_writes                6491                       # number of times the CC registers were written
system.cpu.num_conditional_control_insts         1605                       # number of instructions that are conditional controls
system.cpu.num_fp_alu_accesses                   1323                       # Number of float alu accesses
system.cpu.num_fp_insts                          1323                       # number of float instructions
system.cpu.num_fp_register_reads                 1569                       # number of times the floating registers were read
system.cpu.num_fp_register_writes                 759                       # number of times the floating registers were written
system.cpu.num_func_calls                         391                       # number of times a function call or return occured
system.cpu.num_idle_cycles                   0.002000                       # Number of idle cycles
system.cpu.num_int_alu_accesses                 19882                       # Number of integer alu accesses
system.cpu.num_int_insts                        19882                       # number of integer instructions
system.cpu.num_int_register_reads               38827                       # number of times the integer registers were read
system.cpu.num_int_register_writes              15495                       # number of times the integer registers were written
system.cpu.num_load_insts                        2152                       # Number of load instructions
system.cpu.num_mem_refs                          4277                       # number of memory refs
system.cpu.num_store_insts                       2125                       # Number of store instructions
system.cpu.num_vec_alu_accesses                     0                       # Number of vector alu accesses
system.cpu.num_vec_insts                            0                       # number of vector instructions
system.cpu.num_vec_register_reads                   0                       # number of times the vector registers were read
system.cpu.num_vec_register_writes                  0                       # number of times the vector registers were written
system.cpu.op_class::No_OpClass                   349      1.68%      1.68% # Class of executed instruction
system.cpu.op_class::IntAlu                     15554     74.77%     76.45% # Class of executed instruction
system.cpu.op_class::IntMult                        6      0.03%     76.48% # Class of executed instruction
system.cpu.op_class::IntDiv                        21      0.10%     76.58% # Class of executed instruction
system.cpu.op_class::FloatAdd                     148      0.71%     77.29% # Class of executed instruction
system.cpu.op_class::FloatCmp                       0      0.00%     77.29% # Class of executed instruction
system.cpu.op_class::FloatCvt                       0      0.00%     77.29% # Class of executed instruction
system.cpu.op_class::FloatMult                      0      0.00%     77.29% # Class of executed instruction
system.cpu.op_class::FloatMultAcc                   0      0.00%     77.29% # Class of executed instruction
system.cpu.op_class::FloatDiv                       0      0.00%     77.29% # Class of executed instruction
system.cpu.op_class::FloatMisc                      0      0.00%     77.29% # Class of executed instruction
system.cpu.op_class::FloatSqrt                      0      0.00%     77.29% # Class of executed instruction
system.cpu.op_class::SimdAdd                        0      0.00%     77.29% # Class of executed instruction
system.cpu.op_class::SimdAddAcc                     0      0.00%     77.29% # Class of executed instruction
system.cpu.op_class::SimdAlu                      120      0.58%     77.87% # Class of executed instruction
system.cpu.op_class::SimdCmp                        0      0.00%     77.87% # Class of executed instruction
system.cpu.op_class::SimdCvt                       74      0.36%     78.22% # Class of executed instruction
system.cpu.op_class::SimdMisc                     253      1.22%     79.44% # Class of executed instruction
system.cpu.op_class::SimdMult                       0      0.00%     79.44% # Class of executed instruction
system.cpu.op_class::SimdMultAcc                    0      0.00%     79.44% # Class of executed instruction
system.cpu.op_class::SimdShift                      0      0.00%     79.44% # Class of executed instruction
system.cpu.op_class::SimdShiftAcc                   0      0.00%     79.44% # Class of executed instruction
system.cpu.op_class::SimdDiv                        0      0.00%     79.44% # Class of executed instruction
system.cpu.op_class::SimdSqrt                       0      0.00%     79.44% # Class of executed instruction
system.cpu.op_class::SimdFloatAdd                   0      0.00%     79.44% # Class of executed instruction
system.cpu.op_class::SimdFloatAlu                   0      0.00%     79.44% # Class of executed instruction
system.cpu.op_class::SimdFloatCmp                   0      0.00%     79.44% # Class of executed instruction
system.cpu.op_class::SimdFloatCvt                   0      0.00%     79.44% # Class of executed instruction
system.cpu.op_class::SimdFloatDiv                   0      0.00%     79.44% # Class of executed instruction
system.cpu.op_class::SimdFloatMisc                  0      0.00%     79.44% # Class of executed instruction
system.cpu.op_class::SimdFloatMult                  0      0.00%     79.44% # Class of executed instruction
system.cpu.op_class::SimdFloatMultAcc               0      0.00%     79.44% # Class of executed instruction
system.cpu.op_class::SimdFloatSqrt                  0      0.00%     79.44% # Class of executed instruction
system.cpu.op_class::SimdReduceAdd                  0      0.00%     79.44% # Class of executed instruction
system.cpu.op_class::SimdReduceAlu                  0      0.00%     79.44% # Class of executed instruction
system.cpu.op_class::SimdReduceCmp                  0      0.00%     79.44% # Class of executed instruction
system.cpu.op_class::SimdFloatReduceAdd             0      0.00%     79.44% # Class of executed instruction
system.cpu.op_class::SimdFloatReduceCmp             0      0.00%     79.44% # Class of executed instruction
system.cpu.op_class::SimdAes                        0      0.00%     79.44% # Class of executed instruction
system.cpu.op_class::SimdAesMix                     0      0.00%     79.44% # Class of executed instruction
system.cpu.op_class::SimdSha1Hash                   0      0.00%     79.44% # Class of executed instruction
system.cpu.op_class::SimdSha1Hash2                  0      0.00%     79.44% # Class of executed instruction
system.cpu.op_class::SimdSha256Hash                 0      0.00%     79.44% # Class of executed instruction
system.cpu.op_class::SimdSha256Hash2                0      0.00%     79.44% # Class of executed instruction
system.cpu.op_class::SimdShaSigma2                  0      0.00%     79.44% # Class of executed instruction
system.cpu.op_class::SimdShaSigma3                  0      0.00%     79.44% # Class of executed instruction
system.cpu.op_class::SimdPredAlu                    0      0.00%     79.44% # Class of executed instruction
system.cpu.op_class::MemRead                     2077      9.98%     89.42% # Class of executed instruction
system.cpu.op_class::MemWrite                    1625      7.81%     97.24% # Class of executed instruction
system.cpu.op_class::FloatMemRead                  75      0.36%     97.60% # Class of executed instruction
system.cpu.op_class::FloatMemWrite                500      2.40%    100.00% # Class of executed instruction
system.cpu.op_class::IprAccess                      0      0.00%    100.00% # Class of executed instruction
system.cpu.op_class::InstPrefetch                   0      0.00%    100.00% # Class of executed instruction
system.cpu.op_class::total                      20802                       # Class of executed instruction
system.cpu.workload.numSyscalls                    15                       # Number of system calls
system.membus.snoop_filter.hit_multi_requests            0                       # Number of requests hitting in the snoop filter with multiple (>1) holders of the requested data.
system.membus.snoop_filter.hit_multi_snoops            0                       # Number of snoops hitting in the snoop filter with multiple (>1) holders of the requested data.
system.membus.snoop_filter.hit_single_requests            1                       # Number of requests hitting in the snoop filter with a single holder of the requested data.
system.membus.snoop_filter.hit_single_snoops            0                       # Number of snoops hitting in the snoop filter with a single holder of the requested data.
system.membus.snoop_filter.tot_requests           534                       # Total number of requests made to the snoop filter.
system.membus.snoop_filter.tot_snoops               0                       # Total number of snoops made to the snoop filter.
system.tol2bus.snoop_filter.hit_multi_requests            0                       # Number of requests hitting in the snoop filter with multiple (>1) holders of the requested data.
system.tol2bus.snoop_filter.hit_multi_snoops            0                       # Number of snoops hitting in the snoop filter with multiple (>1) holders of the requested data.
system.tol2bus.snoop_filter.hit_single_requests           11                       # Number of requests hitting in the snoop filter with a single holder of the requested data.
system.tol2bus.snoop_filter.hit_single_snoops           40                       # Number of snoops hitting in the snoop filter with a single holder of the requested data.
system.tol2bus.snoop_filter.tot_requests          546                       # Total number of requests made to the snoop filter.
system.tol2bus.snoop_filter.tot_snoops             40                       # Total number of snoops made to the snoop filter.
system.clk_domain.clock                          1000                       # Clock period in ticks
system.cpu.dcache.demand_hits::.cpu.data         4099                       # number of demand (read+write) hits
system.cpu.dcache.demand_hits::total             4099                       # number of demand (read+write) hits
system.cpu.dcache.overall_hits::.cpu.data         4099                       # number of overall hits
system.cpu.dcache.overall_hits::total            4099                       # number of overall hits
system.cpu.dcache.demand_misses::.cpu.data          176                       # number of demand (read+write) misses
system.cpu.dcache.demand_misses::total            176                       # number of demand (read+write) misses
system.cpu.dcache.overall_misses::.cpu.data          176                       # number of overall misses
system.cpu.dcache.overall_misses::total           176                       # number of overall misses
system.cpu.dcache.demand_miss_latency::.cpu.data     15694500                       # number of demand (read+write) miss cycles
system.cpu.dcache.demand_miss_latency::total     15694500                       # number of demand (read+write) miss cycles
system.cpu.dcache.overall_miss_latency::.cpu.data     15694500                       # number of overall miss cycles
system.cpu.dcache.overall_miss_latency::total     15694500                       # number of overall miss cycles
system.cpu.dcache.demand_accesses::.cpu.data         4275                       # number of demand (read+write) accesses
system.cpu.dcache.demand_accesses::total         4275                       # number of demand (read+write) accesses
system.cpu.dcache.overall_accesses::.cpu.data         4275                       # number of overall (read+write) accesses
system.cpu.dcache.overall_accesses::total         4275                       # number of overall (read+write) accesses
system.cpu.dcache.demand_miss_rate::.cpu.data     0.041170                       # miss rate for demand accesses
system.cpu.dcache.demand_miss_rate::total     0.041170                       # miss rate for demand accesses
system.cpu.dcache.overall_miss_rate::.cpu.data     0.041170                       # miss rate for overall accesses
system.cpu.dcache.overall_miss_rate::total     0.041170                       # miss rate for overall accesses
system.cpu.dcache.demand_avg_miss_latency::.cpu.data 89173.295455                       # average overall miss latency
system.cpu.dcache.demand_avg_miss_latency::total 89173.295455                       # average overall miss latency
system.cpu.dcache.overall_avg_miss_latency::.cpu.data 89173.295455                       # average overall miss latency
system.cpu.dcache.overall_avg_miss_latency::total 89173.295455                       # average overall miss latency
system.cpu.dcache.blocked_cycles::no_mshrs            0                       # number of cycles access was blocked
system.cpu.dcache.blocked_cycles::no_targets            0                       # number of cycles access was blocked
system.cpu.dcache.blocked::no_mshrs                 0                       # number of cycles access was blocked
system.cpu.dcache.blocked::no_targets               0                       # number of cycles access was blocked
system.cpu.dcache.avg_blocked_cycles::no_mshrs          nan                       # average number of cycles each access was blocked
system.cpu.dcache.avg_blocked_cycles::no_targets          nan                       # average number of cycles each access was blocked
system.cpu.dcache.demand_mshr_misses::.cpu.data          176                       # number of demand (read+write) MSHR misses
system.cpu.dcache.demand_mshr_misses::total          176                       # number of demand (read+write) MSHR misses
system.cpu.dcache.overall_mshr_misses::.cpu.data          176                       # number of overall MSHR misses
system.cpu.dcache.overall_mshr_misses::total          176                       # number of overall MSHR misses
system.cpu.dcache.demand_mshr_miss_latency::.cpu.data     15518500                       # number of demand (read+write) MSHR miss cycles
system.cpu.dcache.demand_mshr_miss_latency::total     15518500                       # number of demand (read+write) MSHR miss cycles
system.cpu.dcache.overall_mshr_miss_latency::.cpu.data     15518500                       # number of overall MSHR miss cycles
system.cpu.dcache.overall_mshr_miss_latency::total     15518500                       # number of overall MSHR miss cycles
system.cpu.dcache.demand_mshr_miss_rate::.cpu.data     0.041170                       # mshr miss rate for demand accesses
system.cpu.dcache.demand_mshr_miss_rate::total     0.041170                       # mshr miss rate for demand accesses
system.cpu.dcache.overall_mshr_miss_rate::.cpu.data     0.041170                       # mshr miss rate for overall accesses
system.cpu.dcache.overall_mshr_miss_rate::total     0.041170                       # mshr miss rate for overall accesses
system.cpu.dcache.demand_avg_mshr_miss_latency::.cpu.data 88173.295455                       # average overall mshr miss latency
system.cpu.dcache.demand_avg_mshr_miss_latency::total 88173.295455                       # average overall mshr miss latency
system.cpu.dcache.overall_avg_mshr_miss_latency::.cpu.data 88173.295455                       # average overall mshr miss latency
system.cpu.dcache.overall_avg_mshr_miss_latency::total 88173.295455                       # average overall mshr miss latency
system.cpu.dcache.replacements                      0                       # number of replacements
system.cpu.dcache.ReadReq_hits::.cpu.data         2063                       # number of ReadReq hits
system.cpu.dcache.ReadReq_hits::total            2063                       # number of ReadReq hits
system.cpu.dcache.ReadReq_misses::.cpu.data           89                       # number of ReadReq misses
system.cpu.dcache.ReadReq_misses::total            89                       # number of ReadReq misses
system.cpu.dcache.ReadReq_miss_latency::.cpu.data      8231000                       # number of ReadReq miss cycles
system.cpu.dcache.ReadReq_miss_latency::total      8231000                       # number of ReadReq miss cycles
system.cpu.dcache.ReadReq_accesses::.cpu.data         2152                       # number of ReadReq accesses(hits+misses)
system.cpu.dcache.ReadReq_accesses::total         2152                       # number of ReadReq accesses(hits+misses)
system.cpu.dcache.ReadReq_miss_rate::.cpu.data     0.041357                       # miss rate for ReadReq accesses
system.cpu.dcache.ReadReq_miss_rate::total     0.041357                       # miss rate for ReadReq accesses
system.cpu.dcache.ReadReq_avg_miss_latency::.cpu.data 92483.146067                       # average ReadReq miss latency
system.cpu.dcache.ReadReq_avg_miss_latency::total 92483.146067                       # average ReadReq miss latency
system.cpu.dcache.ReadReq_mshr_misses::.cpu.data           89                       # number of ReadReq MSHR misses
system.cpu.dcache.ReadReq_mshr_misses::total           89                       # number of ReadReq MSHR misses
system.cpu.dcache.ReadReq_mshr_miss_latency::.cpu.data      8142000                       # number of ReadReq MSHR miss cycles
system.cpu.dcache.ReadReq_mshr_miss_latency::total      8142000                       # number of ReadReq MSHR miss cycles
system.cpu.dcache.ReadReq_mshr_miss_rate::.cpu.data     0.041357                       # mshr miss rate for ReadReq accesses
system.cpu.dcache.ReadReq_mshr_miss_rate::total     0.041357                       # mshr miss rate for ReadReq accesses
system.cpu.dcache.ReadReq_avg_mshr_miss_latency::.cpu.data 91483.146067                       # average ReadReq mshr miss latency
system.cpu.dcache.ReadReq_avg_mshr_miss_latency::total 91483.146067                       # average ReadReq mshr miss latency
system.cpu.dcache.WriteReq_hits::.cpu.data         2036                       # number of WriteReq hits
system.cpu.dcache.WriteReq_hits::total           2036                       # number of WriteReq hits
system.cpu.dcache.WriteReq_misses::.cpu.data           87                       # number of WriteReq misses
system.cpu.dcache.WriteReq_misses::total           87                       # number of WriteReq misses
system.cpu.dcache.WriteReq_miss_latency::.cpu.data      7463500                       # number of WriteReq miss cycles
system.cpu.dcache.WriteReq_miss_latency::total      7463500                       # number of WriteReq miss cycles
system.cpu.dcache.WriteReq_accesses::.cpu.data         2123                       # number of WriteReq accesses(hits+misses)
system.cpu.dcache.WriteReq_accesses::total         2123                       # number of WriteReq accesses(hits+misses)
system.cpu.dcache.WriteReq_miss_rate::.cpu.data     0.040980                       # miss rate for WriteReq accesses
system.cpu.dcache.WriteReq_miss_rate::total     0.040980                       # miss rate for WriteReq accesses
system.cpu.dcache.WriteReq_avg_miss_latency::.cpu.data 85787.356322                       # average WriteReq miss latency
system.cpu.dcache.WriteReq_avg_miss_latency::total 85787.356322                       # average WriteReq miss latency
system.cpu.dcache.WriteReq_mshr_misses::.cpu.data           87                       # number of WriteReq MSHR misses
system.cpu.dcache.WriteReq_mshr_misses::total           87                       # number of WriteReq MSHR misses
system.cpu.dcache.WriteReq_mshr_miss_latency::.cpu.data      7376500                       # number of WriteReq MSHR miss cycles
system.cpu.dcache.WriteReq_mshr_miss_latency::total      7376500                       # number of WriteReq MSHR miss cycles
system.cpu.dcache.WriteReq_mshr_miss_rate::.cpu.data     0.040980                       # mshr miss rate for WriteReq accesses
system.cpu.dcache.WriteReq_mshr_miss_rate::total     0.040980                       # mshr miss rate for WriteReq accesses
system.cpu.dcache.WriteReq_avg_mshr_miss_latency::.cpu.data 84787.356322                       # average WriteReq mshr miss latency
system.cpu.dcache.WriteReq_avg_mshr_miss_latency::total 84787.356322                       # average WriteReq mshr miss latency
system.cpu.dcache.power_state.pwrStateResidencyTicks::UNDEFINED     64981500                       # Cumulative time (in ticks) in various power states
system.cpu.dcache.tags.tagsinuse           103.168395                       # Cycle average of tags in use
system.cpu.dcache.tags.total_refs                4275                       # Total number of references to valid blocks.
system.cpu.dcache.tags.sampled_refs               176                       # Sample count of references to valid blocks.
system.cpu.dcache.tags.avg_refs             24.289773                       # Average number of references to valid blocks.
system.cpu.dcache.tags.warmup_cycle            189500                       # Cycle when the warmup percentage was hit.
system.cpu.dcache.tags.occ_blocks::.cpu.data   103.168395                       # Average occupied blocks per requestor
system.cpu.dcache.tags.occ_percent::.cpu.data     0.100750                       # Average percentage of cache occupancy
system.cpu.dcache.tags.occ_percent::total     0.100750                       # Average percentage of cache occupancy
system.cpu.dcache.tags.occ_task_id_blocks::1024          176                       # Occupied blocks per task id
system.cpu.dcache.tags.age_task_id_blocks_1024::0           25                       # Occupied blocks per task id
system.cpu.dcache.tags.age_task_id_blocks_1024::1          151                       # Occupied blocks per task id
system.cpu.dcache.tags.occ_task_id_percent::1024     0.171875                       # Percentage of cache occupancy per task id
system.cpu.dcache.tags.tag_accesses              8726                       # Number of tag accesses
system.cpu.dcache.tags.data_accesses             8726                       # Number of data accesses
system.cpu.dcache.tags.power_state.pwrStateResidencyTicks::UNDEFINED     64981500                       # Cumulative time (in ticks) in various power states
system.cpu.dtb.rdAccesses                        2154                       # TLB accesses on read requests
system.cpu.dtb.wrAccesses                        2126                       # TLB accesses on write requests
system.cpu.dtb.rdMisses                            17                       # TLB misses on read requests
system.cpu.dtb.wrMisses                            12                       # TLB misses on write requests
system.cpu.dtb.walker.power_state.pwrStateResidencyTicks::UNDEFINED     64981500                       # Cumulative time (in ticks) in various power states
system.cpu.dtb_walker_cache.blocked_cycles::no_mshrs            0                       # number of cycles access was blocked
system.cpu.dtb_walker_cache.blocked_cycles::no_targets            0                       # number of cycles access was blocked
system.cpu.dtb_walker_cache.blocked::no_mshrs            0                       # number of cycles access was blocked
system.cpu.dtb_walker_cache.blocked::no_targets            0                       # number of cycles access was blocked
system.cpu.dtb_walker_cache.avg_blocked_cycles::no_mshrs          nan                       # average number of cycles each access was blocked
system.cpu.dtb_walker_cache.avg_blocked_cycles::no_targets          nan                       # average number of cycles each access was blocked
system.cpu.dtb_walker_cache.replacements            0                       # number of replacements
system.cpu.dtb_walker_cache.power_state.pwrStateResidencyTicks::UNDEFINED     64981500                       # Cumulative time (in ticks) in various power states
system.cpu.dtb_walker_cache.tags.tagsinuse            0                       # Cycle average of tags in use
system.cpu.dtb_walker_cache.tags.total_refs            0                       # Total number of references to valid blocks.
system.cpu.dtb_walker_cache.tags.sampled_refs            0                       # Sample count of references to valid blocks.
system.cpu.dtb_walker_cache.tags.avg_refs          nan                       # Average number of references to valid blocks.
system.cpu.dtb_walker_cache.tags.warmup_cycle            0                       # Cycle when the warmup percentage was hit.
system.cpu.dtb_walker_cache.tags.tag_accesses            0                       # Number of tag accesses
system.cpu.dtb_walker_cache.tags.data_accesses            0                       # Number of data accesses
system.cpu.dtb_walker_cache.tags.power_state.pwrStateResidencyTicks::UNDEFINED     64981500                       # Cumulative time (in ticks) in various power states
system.cpu.icache.demand_hits::.cpu.inst        13935                       # number of demand (read+write) hits
system.cpu.icache.demand_hits::total            13935                       # number of demand (read+write) hits
system.cpu.icache.overall_hits::.cpu.inst        13935                       # number of overall hits
system.cpu.icache.overall_hits::total           13935                       # number of overall hits
system.cpu.icache.demand_misses::.cpu.inst          359                       # number of demand (read+write) misses
system.cpu.icache.demand_misses::total            359                       # number of demand (read+write) misses
system.cpu.icache.overall_misses::.cpu.inst          359                       # number of overall misses
system.cpu.icache.overall_misses::total           359                       # number of overall misses
system.cpu.icache.demand_miss_latency::.cpu.inst     30741500                       # number of demand (read+write) miss cycles
system.cpu.icache.demand_miss_latency::total     30741500                       # number of demand (read+write) miss cycles
system.cpu.icache.overall_miss_latency::.cpu.inst     30741500                       # number of overall miss cycles
system.cpu.icache.overall_miss_latency::total     30741500                       # number of overall miss cycles
system.cpu.icache.demand_accesses::.cpu.inst        14294                       # number of demand (read+write) accesses
system.cpu.icache.demand_accesses::total        14294                       # number of demand (read+write) accesses
system.cpu.icache.overall_accesses::.cpu.inst        14294                       # number of overall (read+write) accesses
system.cpu.icache.overall_accesses::total        14294                       # number of overall (read+write) accesses
system.cpu.icache.demand_miss_rate::.cpu.inst     0.025115                       # miss rate for demand accesses
system.cpu.icache.demand_miss_rate::total     0.025115                       # miss rate for demand accesses
system.cpu.icache.overall_miss_rate::.cpu.inst     0.025115                       # miss rate for overall accesses
system.cpu.icache.overall_miss_rate::total     0.025115                       # miss rate for overall accesses
system.cpu.icache.demand_avg_miss_latency::.cpu.inst 85630.919220                       # average overall miss latency
system.cpu.icache.demand_avg_miss_latency::total 85630.919220                       # average overall miss latency
system.cpu.icache.overall_avg_miss_latency::.cpu.inst 85630.919220                       # average overall miss latency
system.cpu.icache.overall_avg_miss_latency::total 85630.919220                       # average overall miss latency
system.cpu.icache.blocked_cycles::no_mshrs            0                       # number of cycles access was blocked
system.cpu.icache.blocked_cycles::no_targets            0                       # number of cycles access was blocked
system.cpu.icache.blocked::no_mshrs                 0                       # number of cycles access was blocked
system.cpu.icache.blocked::no_targets               0                       # number of cycles access was blocked
system.cpu.icache.avg_blocked_cycles::no_mshrs          nan                       # average number of cycles each access was blocked
system.cpu.icache.avg_blocked_cycles::no_targets          nan                       # average number of cycles each access was blocked
system.cpu.icache.writebacks::.writebacks           11                       # number of writebacks
system.cpu.icache.writebacks::total                11                       # number of writebacks
system.cpu.icache.demand_mshr_misses::.cpu.inst          359                       # number of demand (read+write) MSHR misses
system.cpu.icache.demand_mshr_misses::total          359                       # number of demand (read+write) MSHR misses
system.cpu.icache.overall_mshr_misses::.cpu.inst          359                       # number of overall MSHR misses
system.cpu.icache.overall_mshr_misses::total          359                       # number of overall MSHR misses
system.cpu.icache.demand_mshr_miss_latency::.cpu.inst     30382500                       # number of demand (read+write) MSHR miss cycles
system.cpu.icache.demand_mshr_miss_latency::total     30382500                       # number of demand (read+write) MSHR miss cycles
system.cpu.icache.overall_mshr_miss_latency::.cpu.inst     30382500                       # number of overall MSHR miss cycles
system.cpu.icache.overall_mshr_miss_latency::total     30382500                       # number of overall MSHR miss cycles
system.cpu.icache.demand_mshr_miss_rate::.cpu.inst     0.025115                       # mshr miss rate for demand accesses
system.cpu.icache.demand_mshr_miss_rate::total     0.025115                       # mshr miss rate for demand accesses
system.cpu.icache.overall_mshr_miss_rate::.cpu.inst     0.025115                       # mshr miss rate for overall accesses
system.cpu.icache.overall_mshr_miss_rate::total     0.025115                       # mshr miss rate for overall accesses
system.cpu.icache.demand_avg_mshr_miss_latency::.cpu.inst 84630.919220                       # average overall mshr miss latency
system.cpu.icache.demand_avg_mshr_miss_latency::total 84630.919220                       # average overall mshr miss latency
system.cpu.icache.overall_avg_mshr_miss_latency::.cpu.inst 84630.919220                       # average overall mshr miss latency
system.cpu.icache.overall_avg_mshr_miss_latency::total 84630.919220                       # average overall mshr miss latency
system.cpu.icache.replacements                     11                       # number of replacements
system.cpu.icache.ReadReq_hits::.cpu.inst        13935                       # number of ReadReq hits
system.cpu.icache.ReadReq_hits::total           13935                       # number of ReadReq hits
system.cpu.icache.ReadReq_misses::.cpu.inst          359                       # number of ReadReq misses
system.cpu.icache.ReadReq_misses::total           359                       # number of ReadReq misses
system.cpu.icache.ReadReq_miss_latency::.cpu.inst     30741500                       # number of ReadReq miss cycles
system.cpu.icache.ReadReq_miss_latency::total     30741500                       # number of ReadReq miss cycles
system.cpu.icache.ReadReq_accesses::.cpu.inst        14294                       # number of ReadReq accesses(hits+misses)
system.cpu.icache.ReadReq_accesses::total        14294                       # number of ReadReq accesses(hits+misses)
system.cpu.icache.ReadReq_miss_rate::.cpu.inst     0.025115                       # miss rate for ReadReq accesses
system.cpu.icache.ReadReq_miss_rate::total     0.025115                       # miss rate for ReadReq accesses
system.cpu.icache.ReadReq_avg_miss_latency::.cpu.inst 85630.919220                       # average ReadReq miss latency
system.cpu.icache.ReadReq_avg_miss_latency::total 85630.919220                       # average ReadReq miss latency
system.cpu.icache.ReadReq_mshr_misses::.cpu.inst          359                       # number of ReadReq MSHR misses
system.cpu.icache.ReadReq_mshr_misses::total          359                       # number of ReadReq MSHR misses
system.cpu.icache.ReadReq_mshr_miss_latency::.cpu.inst     30382500                       # number of ReadReq MSHR miss cycles
system.cpu.icache.ReadReq_mshr_miss_latency::total     30382500                       # number of ReadReq MSHR miss cycles
system.cpu.icache.ReadReq_mshr_miss_rate::.cpu.inst     0.025115                       # mshr miss rate for ReadReq accesses
system.cpu.icache.ReadReq_mshr_miss_rate::total     0.025115                       # mshr miss rate for ReadReq accesses
system.cpu.icache.ReadReq_avg_mshr_miss_latency::.cpu.inst 84630.919220                       # average ReadReq mshr miss latency
system.cpu.icache.ReadReq_avg_mshr_miss_latency::total 84630.919220                       # average ReadReq mshr miss latency
system.cpu.icache.power_state.pwrStateResidencyTicks::UNDEFINED     64981500                       # Cumulative time (in ticks) in various power states
system.cpu.icache.tags.tagsinuse           166.976404                       # Cycle average of tags in use
system.cpu.icache.tags.total_refs               14294                       # Total number of references to valid blocks.
system.cpu.icache.tags.sampled_refs               359                       # Sample count of references to valid blocks.
system.cpu.icache.tags.avg_refs             39.816156                       # Average number of references to valid blocks.
system.cpu.icache.tags.warmup_cycle             92500                       # Cycle when the warmup percentage was hit.
system.cpu.icache.tags.occ_blocks::.cpu.inst   166.976404                       # Average occupied blocks per requestor
system.cpu.icache.tags.occ_percent::.cpu.inst     0.163063                       # Average percentage of cache occupancy
system.cpu.icache.tags.occ_percent::total     0.163063                       # Average percentage of cache occupancy
system.cpu.icache.tags.occ_task_id_blocks::1024          348                       # Occupied blocks per task id
system.cpu.icache.tags.age_task_id_blocks_1024::0           57                       # Occupied blocks per task id
system.cpu.icache.tags.age_task_id_blocks_1024::1          291                       # Occupied blocks per task id
system.cpu.icache.tags.occ_task_id_percent::1024     0.339844                       # Percentage of cache occupancy per task id
system.cpu.icache.tags.tag_accesses             28947                       # Number of tag accesses
system.cpu.icache.tags.data_accesses            28947                       # Number of data accesses
system.cpu.icache.tags.power_state.pwrStateResidencyTicks::UNDEFINED     64981500                       # Cumulative time (in ticks) in various power states
system.cpu.interrupts.clk_domain.clock           8000                       # Clock period in ticks
system.cpu.itb.rdAccesses                           0                       # TLB accesses on read requests
system.cpu.itb.wrAccesses                       14294                       # TLB accesses on write requests
system.cpu.itb.rdMisses                             0                       # TLB misses on read requests
system.cpu.itb.wrMisses                            63                       # TLB misses on write requests
system.cpu.itb.walker.power_state.pwrStateResidencyTicks::UNDEFINED     64981500                       # Cumulative time (in ticks) in various power states
system.cpu.itb_walker_cache.blocked_cycles::no_mshrs            0                       # number of cycles access was blocked
system.cpu.itb_walker_cache.blocked_cycles::no_targets            0                       # number of cycles access was blocked
system.cpu.itb_walker_cache.blocked::no_mshrs            0                       # number of cycles access was blocked
system.cpu.itb_walker_cache.blocked::no_targets            0                       # number of cycles access was blocked
system.cpu.itb_walker_cache.avg_blocked_cycles::no_mshrs          nan                       # average number of cycles each access was blocked
system.cpu.itb_walker_cache.avg_blocked_cycles::no_targets          nan                       # average number of cycles each access was blocked
system.cpu.itb_walker_cache.replacements            0                       # number of replacements
system.cpu.itb_walker_cache.power_state.pwrStateResidencyTicks::UNDEFINED     64981500                       # Cumulative time (in ticks) in various power states
system.cpu.itb_walker_cache.tags.tagsinuse            0                       # Cycle average of tags in use
system.cpu.itb_walker_cache.tags.total_refs            0                       # Total number of references to valid blocks.
system.cpu.itb_walker_cache.tags.sampled_refs            0                       # Sample count of references to valid blocks.
system.cpu.itb_walker_cache.tags.avg_refs          nan                       # Average number of references to valid blocks.
system.cpu.itb_walker_cache.tags.warmup_cycle            0                       # Cycle when the warmup percentage was hit.
system.cpu.itb_walker_cache.tags.tag_accesses            0                       # Number of tag accesses
system.cpu.itb_walker_cache.tags.data_accesses            0                       # Number of data accesses
system.cpu.itb_walker_cache.tags.power_state.pwrStateResidencyTicks::UNDEFINED     64981500                       # Cumulative time (in ticks) in various power states
system.cpu.power_state.pwrStateResidencyTicks::ON     64981500                       # Cumulative time (in ticks) in various power states
system.cpu.thread_0.numInsts                        0                       # Number of Instructions committed
system.cpu.thread_0.numOps                          0                       # Number of Ops committed
system.cpu.thread_0.numMemRefs                      0                       # Number of Memory References
system.cpu_clk_domain.clock                       500                       # Clock period in ticks
system.cpu_voltage_domain.voltage                   1                       # Voltage in Volts
system.l2.demand_hits::.cpu.inst                    2                       # number of demand (read+write) hits
system.l2.demand_hits::total                        2                       # number of demand (read+write) hits
system.l2.overall_hits::.cpu.inst                   2                       # number of overall hits
system.l2.overall_hits::total                       2                       # number of overall hits
system.l2.demand_misses::.cpu.inst                357                       # number of demand (read+write) misses
system.l2.demand_misses::.cpu.data                176                       # number of demand (read+write) misses
system.l2.demand_misses::total                    533                       # number of demand (read+write) misses
system.l2.overall_misses::.cpu.inst               357                       # number of overall misses
system.l2.overall_misses::.cpu.data               176                       # number of overall misses
system.l2.overall_misses::total                   533                       # number of overall misses
system.l2.demand_miss_latency::.cpu.inst     29823000                       # number of demand (read+write) miss cycles
system.l2.demand_miss_latency::.cpu.data     15254500                       # number of demand (read+write) miss cycles
system.l2.demand_miss_latency::total         45077500                       # number of demand (read+write) miss cycles
system.l2.overall_miss_latency::.cpu.inst     29823000                       # number of overall miss cycles
system.l2.overall_miss_latency::.cpu.data     15254500                       # number of overall miss cycles
system.l2.overall_miss_latency::total        45077500                       # number of overall miss cycles
system.l2.demand_accesses::.cpu.inst              359                       # number of demand (read+write) accesses
system.l2.demand_accesses::.cpu.data              176                       # number of demand (read+write) accesses
system.l2.demand_accesses::total                  535                       # number of demand (read+write) accesses
system.l2.overall_accesses::.cpu.inst             359                       # number of overall (read+write) accesses
system.l2.overall_accesses::.cpu.data             176                       # number of overall (read+write) accesses
system.l2.overall_accesses::total                 535                       # number of overall (read+write) accesses
system.l2.demand_miss_rate::.cpu.inst        0.994429                       # miss rate for demand accesses
system.l2.demand_miss_rate::.cpu.data               1                       # miss rate for demand accesses
system.l2.demand_miss_rate::total            0.996262                       # miss rate for demand accesses
system.l2.overall_miss_rate::.cpu.inst       0.994429                       # miss rate for overall accesses
system.l2.overall_miss_rate::.cpu.data              1                       # miss rate for overall accesses
system.l2.overall_miss_rate::total           0.996262                       # miss rate for overall accesses
system.l2.demand_avg_miss_latency::.cpu.inst 83537.815126                       # average overall miss latency
system.l2.demand_avg_miss_latency::.cpu.data 86673.295455                       # average overall miss latency
system.l2.demand_avg_miss_latency::total 84573.170732                       # average overall miss latency
system.l2.overall_avg_miss_latency::.cpu.inst 83537.815126                       # average overall miss latency
system.l2.overall_avg_miss_latency::.cpu.data 86673.295455                       # average overall miss latency
system.l2.overall_avg_miss_latency::total 84573.170732                       # average overall miss latency
system.l2.blocked_cycles::no_mshrs                  0                       # number of cycles access was blocked
system.l2.blocked_cycles::no_targets                0                       # number of cycles access was blocked
system.l2.blocked::no_mshrs                         0                       # number of cycles access was blocked
system.l2.blocked::no_targets                       0                       # number of cycles access was blocked
system.l2.avg_blocked_cycles::no_mshrs            nan                       # average number of cycles each access was blocked
system.l2.avg_blocked_cycles::no_targets          nan                       # average number of cycles each access was blocked
system.l2.demand_mshr_misses::.cpu.inst           357                       # number of demand (read+write) MSHR misses
system.l2.demand_mshr_misses::.cpu.data           176                       # number of demand (read+write) MSHR misses
system.l2.demand_mshr_misses::total               533                       # number of demand (read+write) MSHR misses
system.l2.overall_mshr_misses::.cpu.inst          357                       # number of overall MSHR misses
system.l2.overall_mshr_misses::.cpu.data          176                       # number of overall MSHR misses
system.l2.overall_mshr_misses::total              533                       # number of overall MSHR misses
system.l2.demand_mshr_miss_latency::.cpu.inst     26253000                       # number of demand (read+write) MSHR miss cycles
system.l2.demand_mshr_miss_latency::.cpu.data     13494500                       # number of demand (read+write) MSHR miss cycles
system.l2.demand_mshr_miss_latency::total     39747500                       # number of demand (read+write) MSHR miss cycles
system.l2.overall_mshr_miss_latency::.cpu.inst     26253000                       # number of overall MSHR miss cycles
system.l2.overall_mshr_miss_latency::.cpu.data     13494500                       # number of overall MSHR miss cycles
system.l2.overall_mshr_miss_latency::total     39747500                       # number of overall MSHR miss cycles
system.l2.demand_mshr_miss_rate::.cpu.inst     0.994429                       # mshr miss rate for demand accesses
system.l2.demand_mshr_miss_rate::.cpu.data            1                       # mshr miss rate for demand accesses
system.l2.demand_mshr_miss_rate::total       0.996262                       # mshr miss rate for demand accesses
system.l2.overall_mshr_miss_rate::.cpu.inst     0.994429                       # mshr miss rate for overall accesses
system.l2.overall_mshr_miss_rate::.cpu.data            1                       # mshr miss rate for overall accesses
system.l2.overall_mshr_miss_rate::total      0.996262                       # mshr miss rate for overall accesses
system.l2.demand_avg_mshr_miss_latency::.cpu.inst 73537.815126                       # average overall mshr miss latency
system.l2.demand_avg_mshr_miss_latency::.cpu.data 76673.295455                       # average overall mshr miss latency
system.l2.demand_avg_mshr_miss_latency::total 74573.170732                       # average overall mshr miss latency
system.l2.overall_avg_mshr_miss_latency::.cpu.inst 73537.815126                       # average overall mshr miss latency
system.l2.overall_avg_mshr_miss_latency::.cpu.data 76673.295455                       # average overall mshr miss latency
system.l2.overall_avg_mshr_miss_latency::total 74573.170732                       # average overall mshr miss latency
system.l2.replacements                             41                       # number of replacements
system.l2.WritebackClean_hits::.writebacks           11                       # number of WritebackClean hits
system.l2.WritebackClean_hits::total               11                       # number of WritebackClean hits
system.l2.WritebackClean_accesses::.writebacks           11                       # number of WritebackClean accesses(hits+misses)
system.l2.WritebackClean_accesses::total           11                       # number of WritebackClean accesses(hits+misses)
system.l2.ReadExReq_misses::.cpu.data              87                       # number of ReadExReq misses
system.l2.ReadExReq_misses::total                  87                       # number of ReadExReq misses
system.l2.ReadExReq_miss_latency::.cpu.data      7246000                       # number of ReadExReq miss cycles
system.l2.ReadExReq_miss_latency::total       7246000                       # number of ReadExReq miss cycles
system.l2.ReadExReq_accesses::.cpu.data            87                       # number of ReadExReq accesses(hits+misses)
system.l2.ReadExReq_accesses::total                87                       # number of ReadExReq accesses(hits+misses)
system.l2.ReadExReq_miss_rate::.cpu.data            1                       # miss rate for ReadExReq accesses
system.l2.ReadExReq_miss_rate::total                1                       # miss rate for ReadExReq accesses
system.l2.ReadExReq_avg_miss_latency::.cpu.data 83287.356322                       # average ReadExReq miss latency
system.l2.ReadExReq_avg_miss_latency::total 83287.356322                       # average ReadExReq miss latency
system.l2.ReadExReq_mshr_misses::.cpu.data           87                       # number of ReadExReq MSHR misses
system.l2.ReadExReq_mshr_misses::total             87                       # number of ReadExReq MSHR misses
system.l2.ReadExReq_mshr_miss_latency::.cpu.data      6376000                       # number of ReadExReq MSHR miss cycles
system.l2.ReadExReq_mshr_miss_latency::total      6376000                       # number of ReadExReq MSHR miss cycles
system.l2.ReadExReq_mshr_miss_rate::.cpu.data            1                       # mshr miss rate for ReadExReq accesses
system.l2.ReadExReq_mshr_miss_rate::total            1                       # mshr miss rate for ReadExReq accesses
system.l2.ReadExReq_avg_mshr_miss_latency::.cpu.data 73287.356322                       # average ReadExReq mshr miss latency
system.l2.ReadExReq_avg_mshr_miss_latency::total 73287.356322                       # average ReadExReq mshr miss latency
system.l2.ReadCleanReq_hits::.cpu.inst              2                       # number of ReadCleanReq hits
system.l2.ReadCleanReq_hits::total                  2                       # number of ReadCleanReq hits
system.l2.ReadCleanReq_misses::.cpu.inst          357                       # number of ReadCleanReq misses
system.l2.ReadCleanReq_misses::total              357                       # number of ReadCleanReq misses
system.l2.ReadCleanReq_miss_latency::.cpu.inst     29823000                       # number of ReadCleanReq miss cycles
system.l2.ReadCleanReq_miss_latency::total     29823000                       # number of ReadCleanReq miss cycles
system.l2.ReadCleanReq_accesses::.cpu.inst          359                       # number of ReadCleanReq accesses(hits+misses)
system.l2.ReadCleanReq_accesses::total            359                       # number of ReadCleanReq accesses(hits+misses)
system.l2.ReadCleanReq_miss_rate::.cpu.inst     0.994429                       # miss rate for ReadCleanReq accesses
system.l2.ReadCleanReq_miss_rate::total      0.994429                       # miss rate for ReadCleanReq accesses
system.l2.ReadCleanReq_avg_miss_latency::.cpu.inst 83537.815126                       # average ReadCleanReq miss latency
system.l2.ReadCleanReq_avg_miss_latency::total 83537.815126                       # average ReadCleanReq miss latency
system.l2.ReadCleanReq_mshr_misses::.cpu.inst          357                       # number of ReadCleanReq MSHR misses
system.l2.ReadCleanReq_mshr_misses::total          357                       # number of ReadCleanReq MSHR misses
system.l2.ReadCleanReq_mshr_miss_latency::.cpu.inst     26253000                       # number of ReadCleanReq MSHR miss cycles
system.l2.ReadCleanReq_mshr_miss_latency::total     26253000                       # number of ReadCleanReq MSHR miss cycles
system.l2.ReadCleanReq_mshr_miss_rate::.cpu.inst     0.994429                       # mshr miss rate for ReadCleanReq accesses
system.l2.ReadCleanReq_mshr_miss_rate::total     0.994429                       # mshr miss rate for ReadCleanReq accesses
system.l2.ReadCleanReq_avg_mshr_miss_latency::.cpu.inst 73537.815126                       # average ReadCleanReq mshr miss latency
system.l2.ReadCleanReq_avg_mshr_miss_latency::total 73537.815126                       # average ReadCleanReq mshr miss latency
system.l2.ReadSharedReq_misses::.cpu.data           89                       # number of ReadSharedReq misses
system.l2.ReadSharedReq_misses::total              89                       # number of ReadSharedReq misses
system.l2.ReadSharedReq_miss_latency::.cpu.data      8008500                       # number of ReadSharedReq miss cycles
system.l2.ReadSharedReq_miss_latency::total      8008500                       # number of ReadSharedReq miss cycles
system.l2.ReadSharedReq_accesses::.cpu.data           89                       # number of ReadSharedReq accesses(hits+misses)
system.l2.ReadSharedReq_accesses::total            89                       # number of ReadSharedReq accesses(hits+misses)
system.l2.ReadSharedReq_miss_rate::.cpu.data            1                       # miss rate for ReadSharedReq accesses
system.l2.ReadSharedReq_miss_rate::total            1                       # miss rate for ReadSharedReq accesses
system.l2.ReadSharedReq_avg_miss_latency::.cpu.data 89983.146067                       # average ReadSharedReq miss latency
system.l2.ReadSharedReq_avg_miss_latency::total 89983.146067                       # average ReadSharedReq miss latency
system.l2.ReadSharedReq_mshr_misses::.cpu.data           89                       # number of ReadSharedReq MSHR misses
system.l2.ReadSharedReq_mshr_misses::total           89                       # number of ReadSharedReq MSHR misses
system.l2.ReadSharedReq_mshr_miss_latency::.cpu.data      7118500                       # number of ReadSharedReq MSHR miss cycles
system.l2.ReadSharedReq_mshr_miss_latency::total      7118500                       # number of ReadSharedReq MSHR miss cycles
system.l2.ReadSharedReq_mshr_miss_rate::.cpu.data            1                       # mshr miss rate for ReadSharedReq accesses
system.l2.ReadSharedReq_mshr_miss_rate::total            1                       # mshr miss rate for ReadSharedReq accesses
system.l2.ReadSharedReq_avg_mshr_miss_latency::.cpu.data 79983.146067                       # average ReadSharedReq mshr miss latency
system.l2.ReadSharedReq_avg_mshr_miss_latency::total 79983.146067                       # average ReadSharedReq mshr miss latency
system.l2.power_state.pwrStateResidencyTicks::UNDEFINED     64981500                       # Cumulative time (in ticks) in various power states
system.l2.tags.tagsinuse                   263.978613                       # Cycle average of tags in use
system.l2.tags.total_refs                         546                       # Total number of references to valid blocks.
system.l2.tags.sampled_refs                       543                       # Sample count of references to valid blocks.
system.l2.tags.avg_refs                      1.005525                       # Average number of references to valid blocks.
system.l2.tags.warmup_cycle                     82000                       # Cycle when the warmup percentage was hit.
system.l2.tags.occ_blocks::.writebacks       2.930096                       # Average occupied blocks per requestor
system.l2.tags.occ_blocks::.cpu.inst       159.777955                       # Average occupied blocks per requestor
system.l2.tags.occ_blocks::.cpu.data       101.270563                       # Average occupied blocks per requestor
system.l2.tags.occ_percent::.writebacks      0.002861                       # Average percentage of cache occupancy
system.l2.tags.occ_percent::.cpu.inst        0.156033                       # Average percentage of cache occupancy
system.l2.tags.occ_percent::.cpu.data        0.098897                       # Average percentage of cache occupancy
system.l2.tags.occ_percent::total            0.257792                       # Average percentage of cache occupancy
system.l2.tags.occ_task_id_blocks::1024           502                       # Occupied blocks per task id
system.l2.tags.age_task_id_blocks_1024::0           87                       # Occupied blocks per task id
system.l2.tags.age_task_id_blocks_1024::1          415                       # Occupied blocks per task id
system.l2.tags.occ_task_id_percent::1024     0.490234                       # Percentage of cache occupancy per task id
system.l2.tags.tag_accesses                      1635                       # Number of tag accesses
system.l2.tags.data_accesses                     1635                       # Number of data accesses
system.l2.tags.power_state.pwrStateResidencyTicks::UNDEFINED     64981500                       # Cumulative time (in ticks) in various power states
system.mem_ctrls.avgPriority_.cpu.inst::samples       714.00                       # Average QoS priority value for accepted requests
system.mem_ctrls.avgPriority_.cpu.data::samples       352.00                       # Average QoS priority value for accepted requests
system.mem_ctrls.priorityMinLatency      0.000000018750                       # per QoS priority minimum request to response latency (s)
system.mem_ctrls.priorityMaxLatency      0.000000562500                       # per QoS priority maximum request to response latency (s)
system.mem_ctrls.numReadWriteTurnArounds            0                       # Number of turnarounds from READ to WRITE
system.mem_ctrls.numWriteReadTurnArounds            0                       # Number of turnarounds from WRITE to READ
system.mem_ctrls.numStayReadState                1615                       # Number of times bus staying in READ state
system.mem_ctrls.numStayWriteState                  0                       # Number of times bus staying in WRITE state
system.mem_ctrls.readReqs                         533                       # Number of read requests accepted
system.mem_ctrls.writeReqs                          0                       # Number of write requests accepted
system.mem_ctrls.readBursts                      1066                       # Number of controller read bursts, including those serviced by the write queue
system.mem_ctrls.writeBursts                        0                       # Number of controller write bursts, including those merged in the write queue
system.mem_ctrls.servicedByWrQ                      0                       # Number of controller read bursts serviced by the write queue
system.mem_ctrls.mergedWrBursts                     0                       # Number of controller write bursts merged with an existing one
system.mem_ctrls.neitherReadNorWriteReqs            0                       # Number of requests that are neither read nor write
system.mem_ctrls.avgRdQLen                       2.00                       # Average read queue length when enqueuing
system.mem_ctrls.avgWrQLen                       0.00                       # Average write queue length when enqueuing
system.mem_ctrls.numRdRetry                         0                       # Number of times read queue was full causing retry
system.mem_ctrls.numWrRetry                         0                       # Number of times write queue was full causing retry
system.mem_ctrls.readPktSize::0                     0                       # Read request sizes (log2)
system.mem_ctrls.readPktSize::1                     0                       # Read request sizes (log2)
system.mem_ctrls.readPktSize::2                     0                       # Read request sizes (log2)
system.mem_ctrls.readPktSize::3                     0                       # Read request sizes (log2)
system.mem_ctrls.readPktSize::4                     0                       # Read request sizes (log2)
system.mem_ctrls.readPktSize::5                     0                       # Read request sizes (log2)
system.mem_ctrls.readPktSize::6                  1066                       # Read request sizes (log2)
system.mem_ctrls.readPktSize::7                     0                       # Read request sizes (log2)
system.mem_ctrls.writePktSize::0                    0                       # Write request sizes (log2)
system.mem_ctrls.writePktSize::1                    0                       # Write request sizes (log2)
system.mem_ctrls.writePktSize::2                    0                       # Write request sizes (log2)
system.mem_ctrls.writePktSize::3                    0                       # Write request sizes (log2)
system.mem_ctrls.writePktSize::4                    0                       # Write request sizes (log2)
system.mem_ctrls.writePktSize::5                    0                       # Write request sizes (log2)
system.mem_ctrls.writePktSize::6                    0                       # Write request sizes (log2)
system.mem_ctrls.writePktSize::7                    0                       # Write request sizes (log2)
system.mem_ctrls.rdQLenPdf::0                     533                       # What read queue length does an incoming req see
system.mem_ctrls.rdQLenPdf::1                     533                       # What read queue length does an incoming req see
system.mem_ctrls.rdQLenPdf::2                       0                       # What read queue length does an incoming req see
system.mem_ctrls.rdQLenPdf::3                       0                       # What read queue length does an incoming req see
system.mem_ctrls.rdQLenPdf::4                       0                       # What read queue length does an incoming req see
system.mem_ctrls.rdQLenPdf::5                       0                       # What read queue length does an incoming req see
system.mem_ctrls.rdQLenPdf::6                       0                       # What read queue length does an incoming req see
system.mem_ctrls.rdQLenPdf::7                       0                       # What read queue length does an incoming req see
system.mem_ctrls.rdQLenPdf::8                       0                       # What read queue length does an incoming req see
system.mem_ctrls.rdQLenPdf::9                       0                       # What read queue length does an incoming req see
system.mem_ctrls.rdQLenPdf::10                      0                       # What read queue length does an incoming req see
system.mem_ctrls.rdQLenPdf::11                      0                       # What read queue length does an incoming req see
system.mem_ctrls.rdQLenPdf::12                      0                       # What read queue length does an incoming req see
system.mem_ctrls.rdQLenPdf::13                      0                       # What read queue length does an incoming req see
system.mem_ctrls.rdQLenPdf::14                      0                       # What read queue length does an incoming req see
system.mem_ctrls.rdQLenPdf::15                      0                       # What read queue length does an incoming req see
system.mem_ctrls.rdQLenPdf::16                      0                       # What read queue length does an incoming req see
system.mem_ctrls.rdQLenPdf::17                      0                       # What read queue length does an incoming req see
system.mem_ctrls.rdQLenPdf::18                      0                       # What read queue length does an incoming req see
system.mem_ctrls.rdQLenPdf::19                      0                       # What read queue length does an incoming req see
system.mem_ctrls.rdQLenPdf::20                      0                       # What read queue length does an incoming req see
system.mem_ctrls.rdQLenPdf::21                      0                       # What read queue length does an incoming req see
system.mem_ctrls.rdQLenPdf::22                      0                       # What read queue length does an incoming req see
system.mem_ctrls.rdQLenPdf::23                      0                       # What read queue length does an incoming req see
system.mem_ctrls.rdQLenPdf::24                      0                       # What read queue length does an incoming req see
system.mem_ctrls.rdQLenPdf::25                      0                       # What read queue length does an incoming req see
system.mem_ctrls.rdQLenPdf::26                      0                       # What read queue length does an incoming req see
system.mem_ctrls.rdQLenPdf::27                      0                       # What read queue length does an incoming req see
system.mem_ctrls.rdQLenPdf::28                      0                       # What read queue length does an incoming req see
system.mem_ctrls.rdQLenPdf::29                      0                       # What read queue length does an incoming req see
system.mem_ctrls.rdQLenPdf::30                      0                       # What read queue length does an incoming req see
system.mem_ctrls.rdQLenPdf::31                      0                       # What read queue length does an incoming req see
system.mem_ctrls.wrQLenPdf::0                       0                       # What write queue length does an incoming req see
system.mem_ctrls.wrQLenPdf::1                       0                       # What write queue length does an incoming req see
system.mem_ctrls.wrQLenPdf::2                       0                       # What write queue length does an incoming req see
system.mem_ctrls.wrQLenPdf::3                       0                       # What write queue length does an incoming req see
system.mem_ctrls.wrQLenPdf::4                       0                       # What write queue length does an incoming req see
system.mem_ctrls.wrQLenPdf::5                       0                       # What write queue length does an incoming req see
system.mem_ctrls.wrQLenPdf::6                       0                       # What write queue length does an incoming req see
system.mem_ctrls.wrQLenPdf::7                       0                       # What write queue length does an incoming req see
system.mem_ctrls.wrQLenPdf::8                       0                       # What write queue length does an incoming req see
system.mem_ctrls.wrQLenPdf::9                       0                       # What write queue length does an incoming req see
system.mem_ctrls.wrQLenPdf::10                      0                       # What write queue length does an incoming req see
system.mem_ctrls.wrQLenPdf::11                      0                       # What write queue length does an incoming req see
system.mem_ctrls.wrQLenPdf::12                      0                       # What write queue length does an incoming req see
system.mem_ctrls.wrQLenPdf::13                      0                       # What write queue length does an incoming req see
system.mem_ctrls.wrQLenPdf::14                      0                       # What write queue length does an incoming req see
system.mem_ctrls.wrQLenPdf::15                      0                       # What write queue length does an incoming req see
system.mem_ctrls.wrQLenPdf::16                      0                       # What write queue length does an incoming req see
system.mem_ctrls.wrQLenPdf::17                      0                       # What write queue length does an incoming req see
system.mem_ctrls.wrQLenPdf::18                      0                       # What write queue length does an incoming req see
system.mem_ctrls.wrQLenPdf::19                      0                       # What write queue length does an incoming req see
system.mem_ctrls.wrQLenPdf::20                      0                       # What write queue length does an incoming req see
system.mem_ctrls.wrQLenPdf::21                      0                       # What write queue length does an incoming req see
system.mem_ctrls.wrQLenPdf::22                      0                       # What write queue length does an incoming req see
system.mem_ctrls.wrQLenPdf::23                      0                       # What write queue length does an incoming req see
system.mem_ctrls.wrQLenPdf::24                      0                       # What write queue length does an incoming req see
system.mem_ctrls.wrQLenPdf::25                      0                       # What write queue length does an incoming req see
system.mem_ctrls.wrQLenPdf::26                      0                       # What write queue length does an incoming req see
system.mem_ctrls.wrQLenPdf::27                      0                       # What write queue length does an incoming req see
system.mem_ctrls.wrQLenPdf::28                      0                       # What write queue length does an incoming req see
system.mem_ctrls.wrQLenPdf::29                      0                       # What write queue length does an incoming req see
system.mem_ctrls.wrQLenPdf::30                      0                       # What write queue length does an incoming req see
system.mem_ctrls.wrQLenPdf::31                      0                       # What write queue length does an incoming req see
system.mem_ctrls.wrQLenPdf::32                      0                       # What write queue length does an incoming req see
system.mem_ctrls.wrQLenPdf::33                      0                       # What write queue length does an incoming req see
system.mem_ctrls.wrQLenPdf::34                      0                       # What write queue length does an incoming req see
system.mem_ctrls.wrQLenPdf::35                      0                       # What write queue length does an incoming req see
system.mem_ctrls.wrQLenPdf::36                      0                       # What write queue length does an incoming req see
system.mem_ctrls.wrQLenPdf::37                      0                       # What write queue length does an incoming req see
system.mem_ctrls.wrQLenPdf::38                      0                       # What write queue length does an incoming req see
system.mem_ctrls.wrQLenPdf::39                      0                       # What write queue length does an incoming req see
system.mem_ctrls.wrQLenPdf::40                      0                       # What write queue length does an incoming req see
system.mem_ctrls.wrQLenPdf::41                      0                       # What write queue length does an incoming req see
system.mem_ctrls.wrQLenPdf::42                      0                       # What write queue length does an incoming req see
system.mem_ctrls.wrQLenPdf::43                      0                       # What write queue length does an incoming req see
system.mem_ctrls.wrQLenPdf::44                      0                       # What write queue length does an incoming req see
system.mem_ctrls.wrQLenPdf::45                      0                       # What write queue length does an incoming req see
system.mem_ctrls.wrQLenPdf::46                      0                       # What write queue length does an incoming req see
system.mem_ctrls.wrQLenPdf::47                      0                       # What write queue length does an incoming req see
system.mem_ctrls.wrQLenPdf::48                      0                       # What write queue length does an incoming req see
system.mem_ctrls.wrQLenPdf::49                      0                       # What write queue length does an incoming req see
system.mem_ctrls.wrQLenPdf::50                      0                       # What write queue length does an incoming req see
system.mem_ctrls.wrQLenPdf::51                      0                       # What write queue length does an incoming req see
system.mem_ctrls.wrQLenPdf::52                      0                       # What write queue length does an incoming req see
system.mem_ctrls.wrQLenPdf::53                      0                       # What write queue length does an incoming req see
system.mem_ctrls.wrQLenPdf::54                      0                       # What write queue length does an incoming req see
system.mem_ctrls.wrQLenPdf::55                      0                       # What write queue length does an incoming req see
system.mem_ctrls.wrQLenPdf::56                      0                       # What write queue length does an incoming req see
system.mem_ctrls.wrQLenPdf::57                      0                       # What write queue length does an incoming req see
system.mem_ctrls.wrQLenPdf::58                      0                       # What write queue length does an incoming req see
system.mem_ctrls.wrQLenPdf::59                      0                       # What write queue length does an incoming req see
system.mem_ctrls.wrQLenPdf::60                      0                       # What write queue length does an incoming req see
system.mem_ctrls.wrQLenPdf::61                      0                       # What write queue length does an incoming req see
system.mem_ctrls.wrQLenPdf::62                      0                       # What write queue length does an incoming req see
system.mem_ctrls.wrQLenPdf::63                      0                       # What write queue length does an incoming req see
system.mem_ctrls.bytesReadWrQ                       0                       # Total number of bytes read from write queue
system.mem_ctrls.bytesReadSys                   68224                       # Total read bytes from the system interface side
system.mem_ctrls.bytesWrittenSys                    0                       # Total written bytes from the system interface side
system.mem_ctrls.avgRdBWSys                   1049.90                       # Average system read bandwidth in MiByte/s
system.mem_ctrls.avgWrBWSys                      0.00                       # Average system write bandwidth in MiByte/s
system.mem_ctrls.totGap                      64877500                       # Total gap between requests
system.mem_ctrls.avgGap                     121721.39                       # Average gap between requests
system.mem_ctrls.requestorReadBytes::.cpu.inst        45696                       # Per-requestor bytes read from memory
system.mem_ctrls.requestorReadBytes::.cpu.data        22528                       # Per-requestor bytes read from memory
system.mem_ctrls.requestorReadRate::.cpu.inst 703215530.574086427689                       # Per-requestor bytes read from memory rate (Bytes/sec)
system.mem_ctrls.requestorReadRate::.cpu.data 346683286.781622469425                       # Per-requestor bytes read from memory rate (Bytes/sec)
system.mem_ctrls.requestorReadAccesses::.cpu.inst          714                       # Per-requestor read serviced memory accesses
system.mem_ctrls.requestorReadAccesses::.cpu.data          352                       # Per-requestor read serviced memory accesses
system.mem_ctrls.requestorReadTotalLat::.cpu.inst     21543000                       # Per-requestor read total memory access latency
system.mem_ctrls.requestorReadTotalLat::.cpu.data     11717500                       # Per-requestor read total memory access latency
system.mem_ctrls.requestorReadAvgLat::.cpu.inst     30172.27                       # Per-requestor read average memory access latency
system.mem_ctrls.requestorReadAvgLat::.cpu.data     33288.35                       # Per-requestor read average memory access latency
system.mem_ctrls.dram.bytes_read::.cpu.inst        45696                       # Number of bytes read from this memory
system.mem_ctrls.dram.bytes_read::.cpu.data        22528                       # Number of bytes read from this memory
system.mem_ctrls.dram.bytes_read::total         68224                       # Number of bytes read from this memory
system.mem_ctrls.dram.bytes_inst_read::.cpu.inst        45696                       # Number of instructions bytes read from this memory
system.mem_ctrls.dram.bytes_inst_read::total        45696                       # Number of instructions bytes read from this memory
system.mem_ctrls.dram.num_reads::.cpu.inst          357                       # Number of read requests responded to by this memory
system.mem_ctrls.dram.num_reads::.cpu.data          176                       # Number of read requests responded to by this memory
system.mem_ctrls.dram.num_reads::total            533                       # Number of read requests responded to by this memory
system.mem_ctrls.dram.bw_read::.cpu.inst    703215531                       # Total read bandwidth from this memory (bytes/s)
system.mem_ctrls.dram.bw_read::.cpu.data    346683287                       # Total read bandwidth from this memory (bytes/s)
system.mem_ctrls.dram.bw_read::total       1049898817                       # Total read bandwidth from this memory (bytes/s)
system.mem_ctrls.dram.bw_inst_read::.cpu.inst    703215531                       # Instruction read bandwidth from this memory (bytes/s)
system.mem_ctrls.dram.bw_inst_read::total    703215531                       # Instruction read bandwidth from this memory (bytes/s)
system.mem_ctrls.dram.bw_total::.cpu.inst    703215531                       # Total bandwidth to/from this memory (bytes/s)
system.mem_ctrls.dram.bw_total::.cpu.data    346683287                       # Total bandwidth to/from this memory (bytes/s)
system.mem_ctrls.dram.bw_total::total      1049898817                       # Total bandwidth to/from this memory (bytes/s)
system.mem_ctrls.dram.readBursts                 1066                       # Number of DRAM read bursts
system.mem_ctrls.dram.writeBursts                   0                       # Number of DRAM write bursts
system.mem_ctrls.dram.perBankRdBursts::0           94                       # Per bank write bursts
system.mem_ctrls.dram.perBankRdBursts::1           84                       # Per bank write bursts
system.mem_ctrls.dram.perBankRdBursts::2           62                       # Per bank write bursts
system.mem_ctrls.dram.perBankRdBursts::3           26                       # Per bank write bursts
system.mem_ctrls.dram.perBankRdBursts::4           52                       # Per bank write bursts
system.mem_ctrls.dram.perBankRdBursts::5           18                       # Per bank write bursts
system.mem_ctrls.dram.perBankRdBursts::6           16                       # Per bank write bursts
system.mem_ctrls.dram.perBankRdBursts::7           28                       # Per bank write bursts
system.mem_ctrls.dram.perBankRdBursts::8          106                       # Per bank write bursts
system.mem_ctrls.dram.perBankRdBursts::9           22                       # Per bank write bursts
system.mem_ctrls.dram.perBankRdBursts::10           52                       # Per bank write bursts
system.mem_ctrls.dram.perBankRdBursts::11           84                       # Per bank write bursts
system.mem_ctrls.dram.perBankRdBursts::12           32                       # Per bank write bursts
system.mem_ctrls.dram.perBankRdBursts::13          146                       # Per bank write bursts
system.mem_ctrls.dram.perBankRdBursts::14           82                       # Per bank write bursts
system.mem_ctrls.dram.perBankRdBursts::15          162                       # Per bank write bursts
system.mem_ctrls.dram.perBankWrBursts::0            0                       # Per bank write bursts
system.mem_ctrls.dram.perBankWrBursts::1            0                       # Per bank write bursts
system.mem_ctrls.dram.perBankWrBursts::2            0                       # Per bank write bursts
system.mem_ctrls.dram.perBankWrBursts::3            0                       # Per bank write bursts
system.mem_ctrls.dram.perBankWrBursts::4            0                       # Per bank write bursts
system.mem_ctrls.dram.perBankWrBursts::5            0                       # Per bank write bursts
system.mem_ctrls.dram.perBankWrBursts::6            0                       # Per bank write bursts
system.mem_ctrls.dram.perBankWrBursts::7            0                       # Per bank write bursts
system.mem_ctrls.dram.perBankWrBursts::8            0                       # Per bank write bursts
system.mem_ctrls.dram.perBankWrBursts::9            0                       # Per bank write bursts
system.mem_ctrls.dram.perBankWrBursts::10            0                       # Per bank write bursts
system.mem_ctrls.dram.perBankWrBursts::11            0                       # Per bank write bursts
system.mem_ctrls.dram.perBankWrBursts::12            0                       # Per bank write bursts
system.mem_ctrls.dram.perBankWrBursts::13            0                       # Per bank write bursts
system.mem_ctrls.dram.perBankWrBursts::14            0                       # Per bank write bursts
system.mem_ctrls.dram.perBankWrBursts::15            0                       # Per bank write bursts
system.mem_ctrls.dram.totQLat                13273000                       # Total ticks spent queuing
system.mem_ctrls.dram.totBusLat               5330000                       # Total ticks spent in databus transfers
system.mem_ctrls.dram.totMemAccLat           33260500                       # Total ticks spent from burst creation until serviced by the DRAM
system.mem_ctrls.dram.avgQLat                12451.22                       # Average queueing delay per DRAM burst
system.mem_ctrls.dram.avgBusLat               5000.00                       # Average bus latency per DRAM burst
system.mem_ctrls.dram.avgMemAccLat           31201.22                       # Average memory access latency per DRAM burst
system.mem_ctrls.dram.readRowHits                 880                       # Number of row buffer hits during reads
system.mem_ctrls.dram.writeRowHits                  0                       # Number of row buffer hits during writes
system.mem_ctrls.dram.readRowHitRate            82.55                       # Row buffer hit rate for reads
system.mem_ctrls.dram.writeRowHitRate             nan                       # Row buffer hit rate for writes
system.mem_ctrls.dram.bytesPerActivate::samples          182                       # Bytes accessed per row activation
system.mem_ctrls.dram.bytesPerActivate::mean   369.934066                       # Bytes accessed per row activation
system.mem_ctrls.dram.bytesPerActivate::gmean   281.149511                       # Bytes accessed per row activation
system.mem_ctrls.dram.bytesPerActivate::stdev   287.919794                       # Bytes accessed per row activation
system.mem_ctrls.dram.bytesPerActivate::128-255           67     36.81%     36.81% # Bytes accessed per row activation
system.mem_ctrls.dram.bytesPerActivate::256-383           43     23.63%     60.44% # Bytes accessed per row activation
system.mem_ctrls.dram.bytesPerActivate::384-511           20     10.99%     71.43% # Bytes accessed per row activation
system.mem_ctrls.dram.bytesPerActivate::512-639           13      7.14%     78.57% # Bytes accessed per row activation
system.mem_ctrls.dram.bytesPerActivate::640-767           10      5.49%     84.07% # Bytes accessed per row activation
system.mem_ctrls.dram.bytesPerActivate::768-895            9      4.95%     89.01% # Bytes accessed per row activation
system.mem_ctrls.dram.bytesPerActivate::896-1023            3      1.65%     90.66% # Bytes accessed per row activation
system.mem_ctrls.dram.bytesPerActivate::1024-1151           17      9.34%    100.00% # Bytes accessed per row activation
system.mem_ctrls.dram.bytesPerActivate::total          182                       # Bytes accessed per row activation
system.mem_ctrls.dram.bytesRead                 68224                       # Total number of bytes read from DRAM
system.mem_ctrls.dram.bytesWritten                  0                       # Total number of bytes written to DRAM
system.mem_ctrls.dram.avgRdBW             1049.898817                       # Average DRAM read bandwidth in MiBytes/s
system.mem_ctrls.dram.avgWrBW                       0                       # Average DRAM write bandwidth in MiBytes/s
system.mem_ctrls.dram.peakBW                 12800.00                       # Theoretical peak bandwidth in MiByte/s
system.mem_ctrls.dram.busUtil                    8.20                       # Data bus utilization in percentage
system.mem_ctrls.dram.busUtilRead                8.20                       # Data bus utilization in percentage for reads
system.mem_ctrls.dram.busUtilWrite               0.00                       # Data bus utilization in percentage for writes
system.mem_ctrls.dram.pageHitRate               82.55                       # Row buffer hit rate, read and write combined
system.mem_ctrls.dram.power_state.pwrStateResidencyTicks::UNDEFINED     64981500                       # Cumulative time (in ticks) in various power states
system.mem_ctrls.dram.rank0.actEnergy          499800                       # Energy for activate commands per rank (pJ)
system.mem_ctrls.dram.rank0.preEnergy          254265                       # Energy for precharge commands per rank (pJ)
system.mem_ctrls.dram.rank0.readEnergy        2713200                       # Energy for read commands per rank (pJ)
system.mem_ctrls.dram.rank0.writeEnergy             0                       # Energy for write commands per rank (pJ)
system.mem_ctrls.dram.rank0.refreshEnergy 4917120.000000                       # Energy for refresh commands per rank (pJ)
system.mem_ctrls.dram.rank0.actBackEnergy     27872430                       # Energy for active background per rank (pJ)
system.mem_ctrls.dram.rank0.preBackEnergy      1481760                       # Energy for precharge background per rank (pJ)
system.mem_ctrls.dram.rank0.actPowerDownEnergy            0                       # Energy for active power-down per rank (pJ)
system.mem_ctrls.dram.rank0.prePowerDownEnergy            0                       # Energy for precharge power-down per rank (pJ)
system.mem_ctrls.dram.rank0.selfRefreshEnergy            0                       # Energy for self refresh per rank (pJ)
system.mem_ctrls.dram.rank0.totalEnergy      37738575                       # Total energy per rank (pJ)
system.mem_ctrls.dram.rank0.averagePower   580.758754                       # Core power per rank (mW)
system.mem_ctrls.dram.rank0.totalIdleTime            0                       # Total Idle time Per DRAM Rank
system.mem_ctrls.dram.rank0.pwrStateTime::IDLE      3609250                       # Time in different power states
system.mem_ctrls.dram.rank0.pwrStateTime::REF      2080000                       # Time in different power states
system.mem_ctrls.dram.rank0.pwrStateTime::SREF            0                       # Time in different power states
system.mem_ctrls.dram.rank0.pwrStateTime::PRE_PDN            0                       # Time in different power states
system.mem_ctrls.dram.rank0.pwrStateTime::ACT     59292250                       # Time in different power states
system.mem_ctrls.dram.rank0.pwrStateTime::ACT_PDN            0                       # Time in different power states
system.mem_ctrls.dram.rank1.actEnergy          828240                       # Energy for activate commands per rank (pJ)
system.mem_ctrls.dram.rank1.preEnergy          436425                       # Energy for precharge commands per rank (pJ)
system.mem_ctrls.dram.rank1.readEnergy        4898040                       # Energy for read commands per rank (pJ)
system.mem_ctrls.dram.rank1.writeEnergy             0                       # Energy for write commands per rank (pJ)
system.mem_ctrls.dram.rank1.refreshEnergy 4917120.000000                       # Energy for refresh commands per rank (pJ)
system.mem_ctrls.dram.rank1.actBackEnergy     28770750                       # Energy for active background per rank (pJ)
system.mem_ctrls.dram.rank1.preBackEnergy       725280                       # Energy for precharge background per rank (pJ)
system.mem_ctrls.dram.rank1.actPowerDownEnergy            0                       # Energy for active power-down per rank (pJ)
system.mem_ctrls.dram.rank1.prePowerDownEnergy            0                       # Energy for precharge power-down per rank (pJ)
system.mem_ctrls.dram.rank1.selfRefreshEnergy            0                       # Energy for self refresh per rank (pJ)
system.mem_ctrls.dram.rank1.totalEnergy      40575855                       # Total energy per rank (pJ)
system.mem_ctrls.dram.rank1.averagePower   624.421643                       # Core power per rank (mW)
system.mem_ctrls.dram.rank1.totalIdleTime            0                       # Total Idle time Per DRAM Rank
system.mem_ctrls.dram.rank1.pwrStateTime::IDLE      1612250                       # Time in different power states
system.mem_ctrls.dram.rank1.pwrStateTime::REF      2080000                       # Time in different power states
system.mem_ctrls.dram.rank1.pwrStateTime::SREF            0                       # Time in different power states
system.mem_ctrls.dram.rank1.pwrStateTime::PRE_PDN            0                       # Time in different power states
system.mem_ctrls.dram.rank1.pwrStateTime::ACT     61289250                       # Time in different power states
system.mem_ctrls.dram.rank1.pwrStateTime::ACT_PDN            0                       # Time in different power states
system.mem_ctrls.power_state.pwrStateResidencyTicks::UNDEFINED     64981500                       # Cumulative time (in ticks) in various power states
system.membus.trans_dist::ReadResp                446                       # Transaction distribution
system.membus.trans_dist::CleanEvict                1                       # Transaction distribution
system.membus.trans_dist::ReadExReq                87                       # Transaction distribution
system.membus.trans_dist::ReadExResp               87                       # Transaction distribution
system.membus.trans_dist::ReadSharedReq           446                       # Transaction distribution
system.membus.pkt_count_system.l2.mem_side_port::system.mem_ctrls.port         1067                       # Packet count per connected requestor and responder (bytes)
system.membus.pkt_count_system.l2.mem_side_port::total         1067                       # Packet count per connected requestor and responder (bytes)
system.membus.pkt_count::total                   1067                       # Packet count per connected requestor and responder (bytes)
system.membus.pkt_size_system.l2.mem_side_port::system.mem_ctrls.port        68224                       # Cumulative packet size per connected requestor and responder (bytes)
system.membus.pkt_size_system.l2.mem_side_port::total        68224                       # Cumulative packet size per connected requestor and responder (bytes)
system.membus.pkt_size::total                   68224                       # Cumulative packet size per connected requestor and responder (bytes)
system.membus.snoops                                0                       # Total snoops (count)
system.membus.snoopTraffic                          0                       # Total snoop traffic (bytes)
system.membus.snoop_fanout::samples               533                       # Request fanout histogram
system.membus.snoop_fanout::mean                    0                       # Request fanout histogram
system.membus.snoop_fanout::stdev                   0                       # Request fanout histogram
system.membus.snoop_fanout::underflows              0      0.00%      0.00% # Request fanout histogram
system.membus.snoop_fanout::0                     533    100.00%    100.00% # Request fanout histogram
system.membus.snoop_fanout::1                       0      0.00%    100.00% # Request fanout histogram
system.membus.snoop_fanout::overflows               0      0.00%    100.00% # Request fanout histogram
system.membus.snoop_fanout::min_value               0                       # Request fanout histogram
system.membus.snoop_fanout::max_value               0                       # Request fanout histogram
system.membus.snoop_fanout::total                 533                       # Request fanout histogram
system.membus.power_state.pwrStateResidencyTicks::UNDEFINED     64981500                       # Cumulative time (in ticks) in various power states
system.membus.reqLayer2.occupancy              535000                       # Layer occupancy (ticks)
system.membus.reqLayer2.utilization               0.8                       # Layer utilization (%)
system.membus.respLayer1.occupancy            4994250                       # Layer occupancy (ticks)
system.membus.respLayer1.utilization              7.7                       # Layer utilization (%)
system.tol2bus.trans_dist::ReadResp               448                       # Transaction distribution
system.tol2bus.trans_dist::WritebackClean           11                       # Transaction distribution
system.tol2bus.trans_dist::CleanEvict              41                       # Transaction distribution
system.tol2bus.trans_dist::ReadExReq               87                       # Transaction distribution
system.tol2bus.trans_dist::ReadExResp              87                       # Transaction distribution
system.tol2bus.trans_dist::ReadCleanReq           359                       # Transaction distribution
system.tol2bus.trans_dist::ReadSharedReq           89                       # Transaction distribution
system.tol2bus.pkt_count_system.cpu.icache.mem_side_port::system.l2.cpu_side_port          729                       # Packet count per connected requestor and responder (bytes)
system.tol2bus.pkt_count_system.cpu.dcache.mem_side_port::system.l2.cpu_side_port          352                       # Packet count per connected requestor and responder (bytes)
system.tol2bus.pkt_count::total                  1081                       # Packet count per connected requestor and responder (bytes)
system.tol2bus.pkt_size_system.cpu.icache.mem_side_port::system.l2.cpu_side_port        47360                       # Cumulative packet size per connected requestor and responder (bytes)
system.tol2bus.pkt_size_system.cpu.dcache.mem_side_port::system.l2.cpu_side_port        22528                       # Cumulative packet size per connected requestor and responder (bytes)
system.tol2bus.pkt_size::total                  69888                       # Cumulative packet size per connected requestor and responder (bytes)
system.tol2bus.snoops                              41                       # Total snoops (count)
system.tol2bus.snoopTraffic                         0                       # Total snoop traffic (bytes)
system.tol2bus.snoop_fanout::samples              576                       # Request fanout histogram
system.tol2bus.snoop_fanout::mean            0.069444                       # Request fanout histogram
system.tol2bus.snoop_fanout::stdev           0.254429                       # Request fanout histogram
system.tol2bus.snoop_fanout::underflows             0      0.00%      0.00% # Request fanout histogram
system.tol2bus.snoop_fanout::0                    536     93.06%     93.06% # Request fanout histogram
system.tol2bus.snoop_fanout::1                     40      6.94%    100.00% # Request fanout histogram
system.tol2bus.snoop_fanout::2                      0      0.00%    100.00% # Request fanout histogram
system.tol2bus.snoop_fanout::3                      0      0.00%    100.00% # Request fanout histogram
system.tol2bus.snoop_fanout::4                      0      0.00%    100.00% # Request fanout histogram
system.tol2bus.snoop_fanout::overflows              0      0.00%    100.00% # Request fanout histogram
system.tol2bus.snoop_fanout::min_value              0                       # Request fanout histogram
system.tol2bus.snoop_fanout::max_value              1                       # Request fanout histogram
system.tol2bus.snoop_fanout::total                576                       # Request fanout histogram
system.tol2bus.power_state.pwrStateResidencyTicks::UNDEFINED     64981500                       # Cumulative time (in ticks) in various power states
system.tol2bus.reqLayer0.occupancy             295000                       # Layer occupancy (ticks)
system.tol2bus.reqLayer0.utilization              0.5                       # Layer utilization (%)
system.tol2bus.respLayer0.occupancy            897500                       # Layer occupancy (ticks)
system.tol2bus.respLayer0.utilization             1.4                       # Layer utilization (%)
system.tol2bus.respLayer1.occupancy            440000                       # Layer occupancy (ticks)
system.tol2bus.respLayer1.utilization             0.7                       # Layer utilization (%)
system.voltage_domain.voltage                       1                       # Voltage in Volts

---------- End Simulation Statistics   ----------
